REMARK  Name = ../refined-set-2016/2i0a/2i0a_pocket.pdb
REMARK  210 active torsions:
REMARK  status: ('A' for Active; 'I' for Inactive)
REMARK    1  A    between atoms: _1  and  _3
REMARK    2  A    between atoms: _3  and  _4
REMARK    3  A    between atoms: _3  and  _6
REMARK    4  A    between atoms: _6  and  _7
REMARK    5  A    between atoms: _7  and  _8
REMARK    6  A    between atoms: _8  and  _9
REMARK    7  A    between atoms: _18  and  _20
REMARK    8  A    between atoms: _20  and  _21
REMARK    9  A    between atoms: _20  and  _23
REMARK   10  A    between atoms: _23  and  _24
REMARK   11  A    between atoms: _27  and  _29
REMARK   12  A    between atoms: _29  and  _30
REMARK   13  A    between atoms: _29  and  _32
REMARK   14  A    between atoms: _32  and  _33
REMARK   15  A    between atoms: _36  and  _38
REMARK   16  A    between atoms: _38  and  _39
REMARK   17  A    between atoms: _38  and  _41
REMARK   18  A    between atoms: _41  and  _42
REMARK   19  A    between atoms: _45  and  _47
REMARK   20  A    between atoms: _47  and  _48
REMARK   21  A    between atoms: _47  and  _50
REMARK   22  A    between atoms: _50  and  _51
REMARK   23  A    between atoms: _54  and  _56
REMARK   24  A    between atoms: _56  and  _57
REMARK   25  A    between atoms: _59  and  _61
REMARK   26  A    between atoms: _61  and  _62
REMARK   27  A    between atoms: _65  and  _67
REMARK   28  A    between atoms: _67  and  _68
REMARK   29  A    between atoms: _67  and  _70
REMARK   30  A    between atoms: _70  and  _71
REMARK   31  A    between atoms: _74  and  _76
REMARK   32  A    between atoms: _76  and  _77
REMARK   33  A    between atoms: _76  and  _79
REMARK   34  A    between atoms: _79  and  _80
REMARK   35  A    between atoms: _83  and  _85
REMARK   36  A    between atoms: _85  and  _86
REMARK   37  A    between atoms: _85  and  _88
REMARK   38  A    between atoms: _88  and  _89
REMARK   39  A    between atoms: _92  and  _94
REMARK   40  A    between atoms: _94  and  _95
REMARK   41  A    between atoms: _94  and  _97
REMARK   42  A    between atoms: _100  and  _102
REMARK   43  A    between atoms: _102  and  _103
REMARK   44  A    between atoms: _102  and  _105
REMARK   45  A    between atoms: _105  and  _106
REMARK   46  A    between atoms: _106  and  _107
REMARK   47  A    between atoms: _109  and  _111
REMARK   48  A    between atoms: _111  and  _112
REMARK   49  A    between atoms: _111  and  _114
REMARK   50  A    between atoms: _114  and  _115
REMARK   51  A    between atoms: _118  and  _120
REMARK   52  A    between atoms: _120  and  _121
REMARK   53  A    between atoms: _123  and  _125
REMARK   54  A    between atoms: _125  and  _126
REMARK   55  A    between atoms: _128  and  _130
REMARK   56  A    between atoms: _130  and  _131
REMARK   57  A    between atoms: _130  and  _133
REMARK   58  A    between atoms: _133  and  _134
REMARK   59  A    between atoms: _137  and  _139
REMARK   60  A    between atoms: _139  and  _140
REMARK   61  A    between atoms: _142  and  _144
REMARK   62  A    between atoms: _144  and  _145
REMARK   63  A    between atoms: _147  and  _149
REMARK   64  A    between atoms: _149  and  _150
REMARK   65  A    between atoms: _149  and  _152
REMARK   66  A    between atoms: _152  and  _153
REMARK   67  A    between atoms: _159  and  _161
REMARK   68  A    between atoms: _161  and  _162
REMARK   69  A    between atoms: _161  and  _164
REMARK   70  A    between atoms: _164  and  _165
REMARK   71  A    between atoms: _169  and  _170
REMARK   72  A    between atoms: _175  and  _177
REMARK   73  A    between atoms: _177  and  _178
REMARK   74  A    between atoms: _177  and  _180
REMARK   75  A    between atoms: _183  and  _185
REMARK   76  A    between atoms: _185  and  _186
REMARK   77  A    between atoms: _185  and  _188
REMARK   78  A    between atoms: _188  and  _189
REMARK   79  A    between atoms: _194  and  _196
REMARK   80  A    between atoms: _196  and  _197
REMARK   81  A    between atoms: _196  and  _199
REMARK   82  A    between atoms: _199  and  _200
REMARK   83  A    between atoms: _203  and  _205
REMARK   84  A    between atoms: _205  and  _206
REMARK   85  A    between atoms: _205  and  _208
REMARK   86  A    between atoms: _208  and  _209
REMARK   87  A    between atoms: _212  and  _214
REMARK   88  A    between atoms: _214  and  _215
REMARK   89  A    between atoms: _217  and  _219
REMARK   90  A    between atoms: _219  and  _220
REMARK   91  A    between atoms: _219  and  _222
REMARK   92  A    between atoms: _222  and  _223
REMARK   93  A    between atoms: _223  and  _224
REMARK   94  A    between atoms: _224  and  _225
REMARK   95  A    between atoms: _234  and  _236
REMARK   96  A    between atoms: _236  and  _237
REMARK   97  A    between atoms: _236  and  _239
REMARK   98  A    between atoms: _239  and  _240
REMARK   99  A    between atoms: _240  and  _241
REMARK  100  A    between atoms: _241  and  _242
REMARK  101  A    between atoms: _251  and  _253
REMARK  102  A    between atoms: _253  and  _254
REMARK  103  A    between atoms: _253  and  _256
REMARK  104  A    between atoms: _256  and  _257
REMARK  105  A    between atoms: _260  and  _262
REMARK  106  A    between atoms: _262  and  _263
REMARK  107  A    between atoms: _262  and  _265
REMARK  108  A    between atoms: _265  and  _266
REMARK  109  A    between atoms: _269  and  _271
REMARK  110  A    between atoms: _271  and  _272
REMARK  111  A    between atoms: _271  and  _274
REMARK  112  A    between atoms: _274  and  _275
REMARK  113  A    between atoms: _278  and  _280
REMARK  114  A    between atoms: _280  and  _281
REMARK  115  A    between atoms: _280  and  _283
REMARK  116  A    between atoms: _283  and  _284
REMARK  117  A    between atoms: _287  and  _289
REMARK  118  A    between atoms: _289  and  _290
REMARK  119  A    between atoms: _292  and  _294
REMARK  120  A    between atoms: _294  and  _295
REMARK  121  A    between atoms: _298  and  _300
REMARK  122  A    between atoms: _300  and  _301
REMARK  123  A    between atoms: _300  and  _303
REMARK  124  A    between atoms: _303  and  _304
REMARK  125  A    between atoms: _307  and  _309
REMARK  126  A    between atoms: _309  and  _310
REMARK  127  A    between atoms: _309  and  _312
REMARK  128  A    between atoms: _312  and  _313
REMARK  129  A    between atoms: _316  and  _318
REMARK  130  A    between atoms: _318  and  _319
REMARK  131  A    between atoms: _318  and  _321
REMARK  132  A    between atoms: _321  and  _322
REMARK  133  A    between atoms: _325  and  _327
REMARK  134  A    between atoms: _327  and  _328
REMARK  135  A    between atoms: _327  and  _330
REMARK  136  A    between atoms: _333  and  _335
REMARK  137  A    between atoms: _335  and  _336
REMARK  138  A    between atoms: _335  and  _338
REMARK  139  A    between atoms: _338  and  _339
REMARK  140  A    between atoms: _339  and  _340
REMARK  141  A    between atoms: _340  and  _341
REMARK  142  A    between atoms: _341  and  _342
REMARK  143  A    between atoms: _346  and  _348
REMARK  144  A    between atoms: _348  and  _349
REMARK  145  A    between atoms: _348  and  _351
REMARK  146  A    between atoms: _351  and  _352
REMARK  147  A    between atoms: _352  and  _353
REMARK  148  A    between atoms: _355  and  _357
REMARK  149  A    between atoms: _357  and  _358
REMARK  150  A    between atoms: _357  and  _360
REMARK  151  A    between atoms: _360  and  _361
REMARK  152  A    between atoms: _364  and  _366
REMARK  153  A    between atoms: _366  and  _367
REMARK  154  A    between atoms: _369  and  _371
REMARK  155  A    between atoms: _371  and  _372
REMARK  156  A    between atoms: _374  and  _376
REMARK  157  A    between atoms: _376  and  _377
REMARK  158  A    between atoms: _376  and  _379
REMARK  159  A    between atoms: _379  and  _380
REMARK  160  A    between atoms: _383  and  _385
REMARK  161  A    between atoms: _385  and  _386
REMARK  162  A    between atoms: _388  and  _390
REMARK  163  A    between atoms: _390  and  _391
REMARK  164  A    between atoms: _393  and  _395
REMARK  165  A    between atoms: _395  and  _396
REMARK  166  A    between atoms: _395  and  _398
REMARK  167  A    between atoms: _398  and  _399
REMARK  168  A    between atoms: _405  and  _407
REMARK  169  A    between atoms: _407  and  _408
REMARK  170  A    between atoms: _407  and  _410
REMARK  171  A    between atoms: _410  and  _411
REMARK  172  A    between atoms: _414  and  _416
REMARK  173  A    between atoms: _416  and  _417
REMARK  174  A    between atoms: _416  and  _419
REMARK  175  A    between atoms: _422  and  _424
REMARK  176  A    between atoms: _424  and  _425
REMARK  177  A    between atoms: _424  and  _427
REMARK  178  A    between atoms: _427  and  _428
REMARK  179  A    between atoms: _431  and  _433
REMARK  180  A    between atoms: _433  and  _434
REMARK  181  A    between atoms: _433  and  _436
REMARK  182  A    between atoms: _436  and  _437
REMARK  183  A    between atoms: _441  and  _442
REMARK  184  A    between atoms: _447  and  _449
REMARK  185  A    between atoms: _449  and  _450
REMARK  186  A    between atoms: _449  and  _452
REMARK  187  A    between atoms: _455  and  _457
REMARK  188  A    between atoms: _457  and  _458
REMARK  189  A    between atoms: _457  and  _460
REMARK  190  A    between atoms: _460  and  _461
REMARK  191  A    between atoms: _466  and  _468
REMARK  192  A    between atoms: _468  and  _469
REMARK  193  A    between atoms: _468  and  _471
REMARK  194  A    between atoms: _471  and  _472
REMARK  195  A    between atoms: _475  and  _477
REMARK  196  A    between atoms: _477  and  _478
REMARK  197  A    between atoms: _477  and  _480
REMARK  198  A    between atoms: _480  and  _481
REMARK  199  A    between atoms: _484  and  _486
REMARK  200  A    between atoms: _486  and  _487
REMARK  201  A    between atoms: _489  and  _491
REMARK  202  A    between atoms: _491  and  _492
REMARK  203  A    between atoms: _491  and  _494
REMARK  204  A    between atoms: _494  and  _495
REMARK  205  A    between atoms: _495  and  _496
REMARK  206  A    between atoms: _496  and  _497
REMARK  207  A    between atoms: _506  and  _508
REMARK  208  A    between atoms: _508  and  _509
REMARK  209  A    between atoms: _508  and  _511
REMARK  210  A    between atoms: _511  and  _512
REMARK                            x       y       z     vdW  Elec       q    Type
REMARK                         _______ _______ _______ _____ _____    ______ ____
ROOT
ATOM      1  NE  ARG A   1      21.122  36.968  23.772  0.00  0.00    -0.265 N 
ATOM      2  HE  ARG A   1      20.124  36.818  24.023  0.00  0.00    +0.259 HD
ATOM      3  CZ  ARG A   1      21.400  37.929  22.898  0.00  0.00    +0.342 C 
ATOM      4  NH2 ARG A   1      22.660  38.171  22.535  0.00  0.00    -0.292 N 
ATOM      5 HH21 ARG A   1      23.435  37.605  22.937  0.00  0.00    +0.255 HD
ATOM      6 HH22 ARG A   1      22.868  38.925  21.850  0.00  0.00    +0.255 HD
ATOM      7  NH1 ARG A   1      20.412  38.650  22.382  0.00  0.00    -0.292 N 
ATOM      8 HH11 ARG A   1      19.429  38.461  22.663  0.00  0.00    +0.255 HD
ATOM      9 HH12 ARG A   1      20.621  39.404  21.697  0.00  0.00    +0.255 HD
ENDROOT
BRANCH   1  10
ATOM     10  CD  ARG A   1      22.113  36.110  24.403  0.00  0.00    +0.174 C 
BRANCH  10  11
ATOM     11  CG  ARG A   1      21.448  35.075  25.273  0.00  0.00    +0.045 C 
BRANCH  11  12
ATOM     12  CB  ARG A   1      22.458  34.298  26.060  0.00  0.00    +0.029 C 
BRANCH  12  13
ATOM     13  CA  ARG A   1      21.834  33.290  27.017  0.00  0.00    +0.133 C 
BRANCH  13  14
ATOM     14  N   ARG A   1      21.134  33.962  28.115  0.00  0.00    -0.239 NA
ATOM     15  H   ARG A   1      21.093  35.001  28.139  0.00  0.00    +0.142 HD
ENDBRANCH  13  14
BRANCH  13  16
ATOM     16  C   ARG A   1      22.934  32.392  27.574  0.00  0.00    +0.224 C 
ATOM     17  O   ARG A   1      23.715  32.832  28.426  0.00  0.00    -0.287 OA
ENDBRANCH  13  16
ENDBRANCH  12  13
ENDBRANCH  11  12
ENDBRANCH  10  11
ENDBRANCH   1  10
TORSDOF 6
REMARK  Name = ../refined-set-2016/2i0a/2i0a_pocket.pdb
REMARK  210 active torsions:
REMARK  status: ('A' for Active; 'I' for Inactive)
REMARK    1  A    between atoms: _1  and  _3
REMARK    2  A    between atoms: _3  and  _4
REMARK    3  A    between atoms: _3  and  _6
REMARK    4  A    between atoms: _6  and  _7
REMARK    5  A    between atoms: _7  and  _8
REMARK    6  A    between atoms: _8  and  _9
REMARK    7  A    between atoms: _18  and  _20
REMARK    8  A    between atoms: _20  and  _21
REMARK    9  A    between atoms: _20  and  _23
REMARK   10  A    between atoms: _23  and  _24
REMARK   11  A    between atoms: _27  and  _29
REMARK   12  A    between atoms: _29  and  _30
REMARK   13  A    between atoms: _29  and  _32
REMARK   14  A    between atoms: _32  and  _33
REMARK   15  A    between atoms: _36  and  _38
REMARK   16  A    between atoms: _38  and  _39
REMARK   17  A    between atoms: _38  and  _41
REMARK   18  A    between atoms: _41  and  _42
REMARK   19  A    between atoms: _45  and  _47
REMARK   20  A    between atoms: _47  and  _48
REMARK   21  A    between atoms: _47  and  _50
REMARK   22  A    between atoms: _50  and  _51
REMARK   23  A    between atoms: _54  and  _56
REMARK   24  A    between atoms: _56  and  _57
REMARK   25  A    between atoms: _59  and  _61
REMARK   26  A    between atoms: _61  and  _62
REMARK   27  A    between atoms: _65  and  _67
REMARK   28  A    between atoms: _67  and  _68
REMARK   29  A    between atoms: _67  and  _70
REMARK   30  A    between atoms: _70  and  _71
REMARK   31  A    between atoms: _74  and  _76
REMARK   32  A    between atoms: _76  and  _77
REMARK   33  A    between atoms: _76  and  _79
REMARK   34  A    between atoms: _79  and  _80
REMARK   35  A    between atoms: _83  and  _85
REMARK   36  A    between atoms: _85  and  _86
REMARK   37  A    between atoms: _85  and  _88
REMARK   38  A    between atoms: _88  and  _89
REMARK   39  A    between atoms: _92  and  _94
REMARK   40  A    between atoms: _94  and  _95
REMARK   41  A    between atoms: _94  and  _97
REMARK   42  A    between atoms: _100  and  _102
REMARK   43  A    between atoms: _102  and  _103
REMARK   44  A    between atoms: _102  and  _105
REMARK   45  A    between atoms: _105  and  _106
REMARK   46  A    between atoms: _106  and  _107
REMARK   47  A    between atoms: _109  and  _111
REMARK   48  A    between atoms: _111  and  _112
REMARK   49  A    between atoms: _111  and  _114
REMARK   50  A    between atoms: _114  and  _115
REMARK   51  A    between atoms: _118  and  _120
REMARK   52  A    between atoms: _120  and  _121
REMARK   53  A    between atoms: _123  and  _125
REMARK   54  A    between atoms: _125  and  _126
REMARK   55  A    between atoms: _128  and  _130
REMARK   56  A    between atoms: _130  and  _131
REMARK   57  A    between atoms: _130  and  _133
REMARK   58  A    between atoms: _133  and  _134
REMARK   59  A    between atoms: _137  and  _139
REMARK   60  A    between atoms: _139  and  _140
REMARK   61  A    between atoms: _142  and  _144
REMARK   62  A    between atoms: _144  and  _145
REMARK   63  A    between atoms: _147  and  _149
REMARK   64  A    between atoms: _149  and  _150
REMARK   65  A    between atoms: _149  and  _152
REMARK   66  A    between atoms: _152  and  _153
REMARK   67  A    between atoms: _159  and  _161
REMARK   68  A    between atoms: _161  and  _162
REMARK   69  A    between atoms: _161  and  _164
REMARK   70  A    between atoms: _164  and  _165
REMARK   71  A    between atoms: _169  and  _170
REMARK   72  A    between atoms: _175  and  _177
REMARK   73  A    between atoms: _177  and  _178
REMARK   74  A    between atoms: _177  and  _180
REMARK   75  A    between atoms: _183  and  _185
REMARK   76  A    between atoms: _185  and  _186
REMARK   77  A    between atoms: _185  and  _188
REMARK   78  A    between atoms: _188  and  _189
REMARK   79  A    between atoms: _194  and  _196
REMARK   80  A    between atoms: _196  and  _197
REMARK   81  A    between atoms: _196  and  _199
REMARK   82  A    between atoms: _199  and  _200
REMARK   83  A    between atoms: _203  and  _205
REMARK   84  A    between atoms: _205  and  _206
REMARK   85  A    between atoms: _205  and  _208
REMARK   86  A    between atoms: _208  and  _209
REMARK   87  A    between atoms: _212  and  _214
REMARK   88  A    between atoms: _214  and  _215
REMARK   89  A    between atoms: _217  and  _219
REMARK   90  A    between atoms: _219  and  _220
REMARK   91  A    between atoms: _219  and  _222
REMARK   92  A    between atoms: _222  and  _223
REMARK   93  A    between atoms: _223  and  _224
REMARK   94  A    between atoms: _224  and  _225
REMARK   95  A    between atoms: _234  and  _236
REMARK   96  A    between atoms: _236  and  _237
REMARK   97  A    between atoms: _236  and  _239
REMARK   98  A    between atoms: _239  and  _240
REMARK   99  A    between atoms: _240  and  _241
REMARK  100  A    between atoms: _241  and  _242
REMARK  101  A    between atoms: _251  and  _253
REMARK  102  A    between atoms: _253  and  _254
REMARK  103  A    between atoms: _253  and  _256
REMARK  104  A    between atoms: _256  and  _257
REMARK  105  A    between atoms: _260  and  _262
REMARK  106  A    between atoms: _262  and  _263
REMARK  107  A    between atoms: _262  and  _265
REMARK  108  A    between atoms: _265  and  _266
REMARK  109  A    between atoms: _269  and  _271
REMARK  110  A    between atoms: _271  and  _272
REMARK  111  A    between atoms: _271  and  _274
REMARK  112  A    between atoms: _274  and  _275
REMARK  113  A    between atoms: _278  and  _280
REMARK  114  A    between atoms: _280  and  _281
REMARK  115  A    between atoms: _280  and  _283
REMARK  116  A    between atoms: _283  and  _284
REMARK  117  A    between atoms: _287  and  _289
REMARK  118  A    between atoms: _289  and  _290
REMARK  119  A    between atoms: _292  and  _294
REMARK  120  A    between atoms: _294  and  _295
REMARK  121  A    between atoms: _298  and  _300
REMARK  122  A    between atoms: _300  and  _301
REMARK  123  A    between atoms: _300  and  _303
REMARK  124  A    between atoms: _303  and  _304
REMARK  125  A    between atoms: _307  and  _309
REMARK  126  A    between atoms: _309  and  _310
REMARK  127  A    between atoms: _309  and  _312
REMARK  128  A    between atoms: _312  and  _313
REMARK  129  A    between atoms: _316  and  _318
REMARK  130  A    between atoms: _318  and  _319
REMARK  131  A    between atoms: _318  and  _321
REMARK  132  A    between atoms: _321  and  _322
REMARK  133  A    between atoms: _325  and  _327
REMARK  134  A    between atoms: _327  and  _328
REMARK  135  A    between atoms: _327  and  _330
REMARK  136  A    between atoms: _333  and  _335
REMARK  137  A    between atoms: _335  and  _336
REMARK  138  A    between atoms: _335  and  _338
REMARK  139  A    between atoms: _338  and  _339
REMARK  140  A    between atoms: _339  and  _340
REMARK  141  A    between atoms: _340  and  _341
REMARK  142  A    between atoms: _341  and  _342
REMARK  143  A    between atoms: _346  and  _348
REMARK  144  A    between atoms: _348  and  _349
REMARK  145  A    between atoms: _348  and  _351
REMARK  146  A    between atoms: _351  and  _352
REMARK  147  A    between atoms: _352  and  _353
REMARK  148  A    between atoms: _355  and  _357
REMARK  149  A    between atoms: _357  and  _358
REMARK  150  A    between atoms: _357  and  _360
REMARK  151  A    between atoms: _360  and  _361
REMARK  152  A    between atoms: _364  and  _366
REMARK  153  A    between atoms: _366  and  _367
REMARK  154  A    between atoms: _369  and  _371
REMARK  155  A    between atoms: _371  and  _372
REMARK  156  A    between atoms: _374  and  _376
REMARK  157  A    between atoms: _376  and  _377
REMARK  158  A    between atoms: _376  and  _379
REMARK  159  A    between atoms: _379  and  _380
REMARK  160  A    between atoms: _383  and  _385
REMARK  161  A    between atoms: _385  and  _386
REMARK  162  A    between atoms: _388  and  _390
REMARK  163  A    between atoms: _390  and  _391
REMARK  164  A    between atoms: _393  and  _395
REMARK  165  A    between atoms: _395  and  _396
REMARK  166  A    between atoms: _395  and  _398
REMARK  167  A    between atoms: _398  and  _399
REMARK  168  A    between atoms: _405  and  _407
REMARK  169  A    between atoms: _407  and  _408
REMARK  170  A    between atoms: _407  and  _410
REMARK  171  A    between atoms: _410  and  _411
REMARK  172  A    between atoms: _414  and  _416
REMARK  173  A    between atoms: _416  and  _417
REMARK  174  A    between atoms: _416  and  _419
REMARK  175  A    between atoms: _422  and  _424
REMARK  176  A    between atoms: _424  and  _425
REMARK  177  A    between atoms: _424  and  _427
REMARK  178  A    between atoms: _427  and  _428
REMARK  179  A    between atoms: _431  and  _433
REMARK  180  A    between atoms: _433  and  _434
REMARK  181  A    between atoms: _433  and  _436
REMARK  182  A    between atoms: _436  and  _437
REMARK  183  A    between atoms: _441  and  _442
REMARK  184  A    between atoms: _447  and  _449
REMARK  185  A    between atoms: _449  and  _450
REMARK  186  A    between atoms: _449  and  _452
REMARK  187  A    between atoms: _455  and  _457
REMARK  188  A    between atoms: _457  and  _458
REMARK  189  A    between atoms: _457  and  _460
REMARK  190  A    between atoms: _460  and  _461
REMARK  191  A    between atoms: _466  and  _468
REMARK  192  A    between atoms: _468  and  _469
REMARK  193  A    between atoms: _468  and  _471
REMARK  194  A    between atoms: _471  and  _472
REMARK  195  A    between atoms: _475  and  _477
REMARK  196  A    between atoms: _477  and  _478
REMARK  197  A    between atoms: _477  and  _480
REMARK  198  A    between atoms: _480  and  _481
REMARK  199  A    between atoms: _484  and  _486
REMARK  200  A    between atoms: _486  and  _487
REMARK  201  A    between atoms: _489  and  _491
REMARK  202  A    between atoms: _491  and  _492
REMARK  203  A    between atoms: _491  and  _494
REMARK  204  A    between atoms: _494  and  _495
REMARK  205  A    between atoms: _495  and  _496
REMARK  206  A    between atoms: _496  and  _497
REMARK  207  A    between atoms: _506  and  _508
REMARK  208  A    between atoms: _508  and  _509
REMARK  209  A    between atoms: _508  and  _511
REMARK  210  A    between atoms: _511  and  _512
REMARK                            x       y       z     vdW  Elec       q    Type
REMARK                         _______ _______ _______ _____ _____    ______ ____
ROOT
ATOM      1  C   GLY A   5      20.531  24.872  15.913  0.00  0.00    +0.243 C 
ATOM      2  N   ALA A   6      21.838  24.828  16.174  0.00  0.00    -0.297 N 
ATOM      3  H   ALA A   6      22.149  24.723  17.161  0.00  0.00    +0.150 HD
ATOM      4  O   GLY A   5      20.075  25.062  14.781  0.00  0.00    -0.273 OA
ENDROOT
BRANCH   2   5
ATOM      5  CA  ALA A   6      22.847  24.922  15.127  0.00  0.00    +0.149 C 
ATOM      6  CB  ALA A   6      23.868  25.973  15.486  0.00  0.00    +0.031 C 
BRANCH   5   7
ATOM      7  C   ALA A   6      23.532  23.568  14.891  0.00  0.00    +0.241 C 
ATOM      8  O   ALA A   6      24.096  22.984  15.818  0.00  0.00    -0.273 OA
ATOM      9  N   ASP A   7      23.467  23.075  13.652  0.00  0.00    -0.297 N 
ATOM     10  H   ASP A   7      22.876  23.562  12.948  0.00  0.00    +0.150 HD
BRANCH   9  11
ATOM     11  CA  ASP A   7      24.198  21.873  13.249  0.00  0.00    +0.160 C 
BRANCH  11  12
ATOM     12  C   ASP A   7      25.705  22.074  13.415  0.00  0.00    +0.241 C 
ATOM     13  O   ASP A   7      26.421  21.180  13.885  0.00  0.00    -0.273 OA
ATOM     14  N   ASP A   8      26.167  23.246  12.989  0.00  0.00    -0.297 N 
ATOM     15  H   ASP A   8      25.480  23.984  12.734  0.00  0.00    +0.150 HD
BRANCH  14  16
ATOM     16  CA  ASP A   8      27.582  23.549  12.861  0.00  0.00    +0.160 C 
BRANCH  16  17
ATOM     17  C   ASP A   8      28.025  24.687  13.764  0.00  0.00    +0.241 C 
ATOM     18  N   THR A   9      29.275  24.599  14.202  0.00  0.00    -0.295 N 
ATOM     19  H   THR A   9      29.805  23.725  14.010  0.00  0.00    +0.150 HD
ATOM     20  O   ASP A   8      27.274  25.633  14.020  0.00  0.00    -0.273 OA
BRANCH  18  21
ATOM     21  CA  THR A   9      29.938  25.661  14.935  0.00  0.00    +0.176 C 
BRANCH  21  22
ATOM     22  C   THR A   9      30.415  26.738  13.964  0.00  0.00    +0.243 C 
ATOM     23  N   VAL A  10      30.020  27.981  14.237  0.00  0.00    -0.298 N 
ATOM     24  H   VAL A  10      29.455  28.150  15.094  0.00  0.00    +0.150 HD
ATOM     25  O   THR A   9      31.106  26.445  12.982  0.00  0.00    -0.273 OA
BRANCH  23  26
ATOM     26  CA  VAL A  10      30.351  29.118  13.377  0.00  0.00    +0.137 C 
BRANCH  26  27
ATOM     27  CB  VAL A  10      29.126  29.605  12.560  0.00  0.00    +0.026 C 
ATOM     28  CG2 VAL A  10      28.362  28.423  11.981  0.00  0.00    +0.002 C 
ATOM     29  CG1 VAL A  10      29.582  30.550  11.447  0.00  0.00    +0.002 C 
ENDBRANCH  26  27
BRANCH  26  30
ATOM     30  C   VAL A  10      30.860  30.266  14.237  0.00  0.00    +0.227 C 
ATOM     31  O   VAL A  10      30.155  30.732  15.137  0.00  0.00    -0.286 OA
ENDBRANCH  26  30
ENDBRANCH  23  26
ENDBRANCH  21  22
BRANCH  21  32
ATOM     32  CB  THR A   9      31.116  25.083  15.738  0.00  0.00    +0.137 C 
ATOM     33  CG2 THR A   9      31.956  26.180  16.382  0.00  0.00    +0.034 C 
BRANCH  32  34
ATOM     34  OG1 THR A   9      30.596  24.208  16.747  0.00  0.00    -0.382 OA
ATOM     35  HG1 THR A   9      30.089  23.475  16.317  0.00  0.00    +0.210 HD
ENDBRANCH  32  34
ENDBRANCH  21  32
ENDBRANCH  18  21
ENDBRANCH  16  17
BRANCH  16  36
ATOM     36  CB  ASP A   8      27.888  23.938  11.411  0.00  0.00    +0.143 C 
BRANCH  36  37
ATOM     37  CG  ASP A   8      27.616  22.819  10.429  0.00  0.00    +0.367 C 
ATOM     38  OD2 ASP A   8      27.851  21.639  10.768  0.00  0.00    -0.246 OA
ATOM     39  OD1 ASP A   8      27.183  23.132   9.298  0.00  0.00    -0.246 OA
ENDBRANCH  36  37
ENDBRANCH  16  36
ENDBRANCH  14  16
ENDBRANCH  11  12
BRANCH  11  40
ATOM     40  CB  ASP A   7      23.955  21.540  11.768  0.00  0.00    +0.143 C 
BRANCH  40  41
ATOM     41  CG  ASP A   7      22.535  21.106  11.461  0.00  0.00    +0.367 C 
ATOM     42  OD2 ASP A   7      21.699  20.919  12.386  0.00  0.00    -0.246 OA
ATOM     43  OD1 ASP A   7      22.250  20.948  10.251  0.00  0.00    -0.246 OA
ENDBRANCH  40  41
ENDBRANCH  11  40
ENDBRANCH   9  11
ENDBRANCH   5   7
ENDBRANCH   2   5
BRANCH   1  44
ATOM     44  CA  GLY A   5      19.582  24.684  17.083  0.00  0.00    +0.176 C 
BRANCH  44  46
ATOM     45  C   THR A   4      20.711  23.372  18.814  0.00  0.00    +0.243 C 
ATOM     46  N   GLY A   5      20.221  24.534  18.384  0.00  0.00    -0.295 N 
ATOM     47  H   GLY A   5      20.298  25.367  19.002  0.00  0.00    +0.150 HD
ATOM     48  O   THR A   4      20.597  22.321  18.180  0.00  0.00    -0.273 OA
BRANCH  45  49
ATOM     49  CA  THR A   4      21.453  23.391  20.161  0.00  0.00    +0.176 C 
BRANCH  49  51
ATOM     50  C   ASP A   3      22.917  25.302  19.830  0.00  0.00    +0.241 C 
ATOM     51  N   THR A   4      21.947  24.722  20.524  0.00  0.00    -0.295 N 
ATOM     52  H   THR A   4      21.531  25.219  21.337  0.00  0.00    +0.150 HD
ATOM     53  O   ASP A   3      23.382  24.805  18.795  0.00  0.00    -0.273 OA
BRANCH  50  54
ATOM     54  CA  ASP A   3      23.411  26.651  20.354  0.00  0.00    +0.160 C 
BRANCH  54  57
ATOM     55  C   LEU A   2      24.524  27.049  22.492  0.00  0.00    +0.241 C 
ATOM     56  O   LEU A   2      23.511  27.478  23.033  0.00  0.00    -0.273 OA
ATOM     57  N   ASP A   3      24.526  26.502  21.277  0.00  0.00    -0.297 N 
ATOM     58  H   ASP A   3      25.354  25.949  20.978  0.00  0.00    +0.150 HD
BRANCH  55  59
ATOM     59  CA  LEU A   2      25.878  27.138  23.202  0.00  0.00    +0.149 C 
BRANCH  59  61
ATOM     60  C   LEU A   1      26.581  29.276  22.282  0.00  0.00    +0.238 C 
ATOM     61  N   LEU A   2      26.214  28.550  23.338  0.00  0.00    -0.297 N 
ATOM     62  H   LEU A   2      26.167  28.999  24.275  0.00  0.00    +0.150 HD
ATOM     63  O   LEU A   1      26.765  28.790  21.169  0.00  0.00    -0.274 OA
BRANCH  60  64
ATOM     64  CA  LEU A   1      26.769  30.769  22.506  0.00  0.00    +0.145 C 
BRANCH  64  65
ATOM     65  N   LEU A   1      28.104  31.166  22.116  0.00  0.00    -0.238 NA
ATOM     66  H   LEU A   1      28.291  31.363  21.112  0.00  0.00    +0.142 HD
ENDBRANCH  64  65
BRANCH  64  67
ATOM     67  CB  LEU A   1      25.764  31.543  21.663  0.00  0.00    +0.026 C 
BRANCH  67  68
ATOM     68  CG  LEU A   1      24.274  31.327  21.921  0.00  0.00    +0.002 C 
ATOM     69  CD2 LEU A   1      23.857  31.896  23.256  0.00  0.00    +0.000 C 
ATOM     70  CD1 LEU A   1      23.466  31.967  20.778  0.00  0.00    +0.000 C 
ENDBRANCH  67  68
ENDBRANCH  64  67
ENDBRANCH  60  64
ENDBRANCH  59  61
BRANCH  59  71
ATOM     71  CB  LEU A   2      25.835  26.453  24.564  0.00  0.00    +0.029 C 
BRANCH  71  72
ATOM     72  CG  LEU A   2      27.130  26.520  25.378  0.00  0.00    +0.002 C 
ATOM     73  CD2 LEU A   2      26.958  25.779  26.717  0.00  0.00    +0.000 C 
ATOM     74  CD1 LEU A   2      28.319  25.975  24.581  0.00  0.00    +0.000 C 
ENDBRANCH  71  72
ENDBRANCH  59  71
ENDBRANCH  55  59
ENDBRANCH  54  57
BRANCH  54  75
ATOM     75  CB  ASP A   3      23.869  27.555  19.200  0.00  0.00    +0.143 C 
BRANCH  75  76
ATOM     76  CG  ASP A   3      22.742  27.962  18.276  0.00  0.00    +0.367 C 
ATOM     77  OD2 ASP A   3      21.633  27.388  18.364  0.00  0.00    -0.246 OA
ATOM     78  OD1 ASP A   3      22.988  28.871  17.452  0.00  0.00    -0.246 OA
ENDBRANCH  75  76
ENDBRANCH  54  75
ENDBRANCH  50  54
ENDBRANCH  49  51
BRANCH  49  79
ATOM     79  CB  THR A   4      20.543  22.798  21.264  0.00  0.00    +0.137 C 
ATOM     80  CG2 THR A   4      21.335  22.588  22.561  0.00  0.00    +0.034 C 
BRANCH  79  81
ATOM     81  OG1 THR A   4      19.429  23.666  21.510  0.00  0.00    -0.382 OA
ATOM     82  HG1 THR A   4      18.903  23.770  20.678  0.00  0.00    +0.210 HD
ENDBRANCH  79  81
ENDBRANCH  49  79
ENDBRANCH  45  49
ENDBRANCH  44  46
ENDBRANCH   1  44
TORSDOF 35
REMARK  Name = ../refined-set-2016/2i0a/2i0a_pocket.pdb
REMARK  210 active torsions:
REMARK  status: ('A' for Active; 'I' for Inactive)
REMARK    1  A    between atoms: _1  and  _3
REMARK    2  A    between atoms: _3  and  _4
REMARK    3  A    between atoms: _3  and  _6
REMARK    4  A    between atoms: _6  and  _7
REMARK    5  A    between atoms: _7  and  _8
REMARK    6  A    between atoms: _8  and  _9
REMARK    7  A    between atoms: _18  and  _20
REMARK    8  A    between atoms: _20  and  _21
REMARK    9  A    between atoms: _20  and  _23
REMARK   10  A    between atoms: _23  and  _24
REMARK   11  A    between atoms: _27  and  _29
REMARK   12  A    between atoms: _29  and  _30
REMARK   13  A    between atoms: _29  and  _32
REMARK   14  A    between atoms: _32  and  _33
REMARK   15  A    between atoms: _36  and  _38
REMARK   16  A    between atoms: _38  and  _39
REMARK   17  A    between atoms: _38  and  _41
REMARK   18  A    between atoms: _41  and  _42
REMARK   19  A    between atoms: _45  and  _47
REMARK   20  A    between atoms: _47  and  _48
REMARK   21  A    between atoms: _47  and  _50
REMARK   22  A    between atoms: _50  and  _51
REMARK   23  A    between atoms: _54  and  _56
REMARK   24  A    between atoms: _56  and  _57
REMARK   25  A    between atoms: _59  and  _61
REMARK   26  A    between atoms: _61  and  _62
REMARK   27  A    between atoms: _65  and  _67
REMARK   28  A    between atoms: _67  and  _68
REMARK   29  A    between atoms: _67  and  _70
REMARK   30  A    between atoms: _70  and  _71
REMARK   31  A    between atoms: _74  and  _76
REMARK   32  A    between atoms: _76  and  _77
REMARK   33  A    between atoms: _76  and  _79
REMARK   34  A    between atoms: _79  and  _80
REMARK   35  A    between atoms: _83  and  _85
REMARK   36  A    between atoms: _85  and  _86
REMARK   37  A    between atoms: _85  and  _88
REMARK   38  A    between atoms: _88  and  _89
REMARK   39  A    between atoms: _92  and  _94
REMARK   40  A    between atoms: _94  and  _95
REMARK   41  A    between atoms: _94  and  _97
REMARK   42  A    between atoms: _100  and  _102
REMARK   43  A    between atoms: _102  and  _103
REMARK   44  A    between atoms: _102  and  _105
REMARK   45  A    between atoms: _105  and  _106
REMARK   46  A    between atoms: _106  and  _107
REMARK   47  A    between atoms: _109  and  _111
REMARK   48  A    between atoms: _111  and  _112
REMARK   49  A    between atoms: _111  and  _114
REMARK   50  A    between atoms: _114  and  _115
REMARK   51  A    between atoms: _118  and  _120
REMARK   52  A    between atoms: _120  and  _121
REMARK   53  A    between atoms: _123  and  _125
REMARK   54  A    between atoms: _125  and  _126
REMARK   55  A    between atoms: _128  and  _130
REMARK   56  A    between atoms: _130  and  _131
REMARK   57  A    between atoms: _130  and  _133
REMARK   58  A    between atoms: _133  and  _134
REMARK   59  A    between atoms: _137  and  _139
REMARK   60  A    between atoms: _139  and  _140
REMARK   61  A    between atoms: _142  and  _144
REMARK   62  A    between atoms: _144  and  _145
REMARK   63  A    between atoms: _147  and  _149
REMARK   64  A    between atoms: _149  and  _150
REMARK   65  A    between atoms: _149  and  _152
REMARK   66  A    between atoms: _152  and  _153
REMARK   67  A    between atoms: _159  and  _161
REMARK   68  A    between atoms: _161  and  _162
REMARK   69  A    between atoms: _161  and  _164
REMARK   70  A    between atoms: _164  and  _165
REMARK   71  A    between atoms: _169  and  _170
REMARK   72  A    between atoms: _175  and  _177
REMARK   73  A    between atoms: _177  and  _178
REMARK   74  A    between atoms: _177  and  _180
REMARK   75  A    between atoms: _183  and  _185
REMARK   76  A    between atoms: _185  and  _186
REMARK   77  A    between atoms: _185  and  _188
REMARK   78  A    between atoms: _188  and  _189
REMARK   79  A    between atoms: _194  and  _196
REMARK   80  A    between atoms: _196  and  _197
REMARK   81  A    between atoms: _196  and  _199
REMARK   82  A    between atoms: _199  and  _200
REMARK   83  A    between atoms: _203  and  _205
REMARK   84  A    between atoms: _205  and  _206
REMARK   85  A    between atoms: _205  and  _208
REMARK   86  A    between atoms: _208  and  _209
REMARK   87  A    between atoms: _212  and  _214
REMARK   88  A    between atoms: _214  and  _215
REMARK   89  A    between atoms: _217  and  _219
REMARK   90  A    between atoms: _219  and  _220
REMARK   91  A    between atoms: _219  and  _222
REMARK   92  A    between atoms: _222  and  _223
REMARK   93  A    between atoms: _223  and  _224
REMARK   94  A    between atoms: _224  and  _225
REMARK   95  A    between atoms: _234  and  _236
REMARK   96  A    between atoms: _236  and  _237
REMARK   97  A    between atoms: _236  and  _239
REMARK   98  A    between atoms: _239  and  _240
REMARK   99  A    between atoms: _240  and  _241
REMARK  100  A    between atoms: _241  and  _242
REMARK  101  A    between atoms: _251  and  _253
REMARK  102  A    between atoms: _253  and  _254
REMARK  103  A    between atoms: _253  and  _256
REMARK  104  A    between atoms: _256  and  _257
REMARK  105  A    between atoms: _260  and  _262
REMARK  106  A    between atoms: _262  and  _263
REMARK  107  A    between atoms: _262  and  _265
REMARK  108  A    between atoms: _265  and  _266
REMARK  109  A    between atoms: _269  and  _271
REMARK  110  A    between atoms: _271  and  _272
REMARK  111  A    between atoms: _271  and  _274
REMARK  112  A    between atoms: _274  and  _275
REMARK  113  A    between atoms: _278  and  _280
REMARK  114  A    between atoms: _280  and  _281
REMARK  115  A    between atoms: _280  and  _283
REMARK  116  A    between atoms: _283  and  _284
REMARK  117  A    between atoms: _287  and  _289
REMARK  118  A    between atoms: _289  and  _290
REMARK  119  A    between atoms: _292  and  _294
REMARK  120  A    between atoms: _294  and  _295
REMARK  121  A    between atoms: _298  and  _300
REMARK  122  A    between atoms: _300  and  _301
REMARK  123  A    between atoms: _300  and  _303
REMARK  124  A    between atoms: _303  and  _304
REMARK  125  A    between atoms: _307  and  _309
REMARK  126  A    between atoms: _309  and  _310
REMARK  127  A    between atoms: _309  and  _312
REMARK  128  A    between atoms: _312  and  _313
REMARK  129  A    between atoms: _316  and  _318
REMARK  130  A    between atoms: _318  and  _319
REMARK  131  A    between atoms: _318  and  _321
REMARK  132  A    between atoms: _321  and  _322
REMARK  133  A    between atoms: _325  and  _327
REMARK  134  A    between atoms: _327  and  _328
REMARK  135  A    between atoms: _327  and  _330
REMARK  136  A    between atoms: _333  and  _335
REMARK  137  A    between atoms: _335  and  _336
REMARK  138  A    between atoms: _335  and  _338
REMARK  139  A    between atoms: _338  and  _339
REMARK  140  A    between atoms: _339  and  _340
REMARK  141  A    between atoms: _340  and  _341
REMARK  142  A    between atoms: _341  and  _342
REMARK  143  A    between atoms: _346  and  _348
REMARK  144  A    between atoms: _348  and  _349
REMARK  145  A    between atoms: _348  and  _351
REMARK  146  A    between atoms: _351  and  _352
REMARK  147  A    between atoms: _352  and  _353
REMARK  148  A    between atoms: _355  and  _357
REMARK  149  A    between atoms: _357  and  _358
REMARK  150  A    between atoms: _357  and  _360
REMARK  151  A    between atoms: _360  and  _361
REMARK  152  A    between atoms: _364  and  _366
REMARK  153  A    between atoms: _366  and  _367
REMARK  154  A    between atoms: _369  and  _371
REMARK  155  A    between atoms: _371  and  _372
REMARK  156  A    between atoms: _374  and  _376
REMARK  157  A    between atoms: _376  and  _377
REMARK  158  A    between atoms: _376  and  _379
REMARK  159  A    between atoms: _379  and  _380
REMARK  160  A    between atoms: _383  and  _385
REMARK  161  A    between atoms: _385  and  _386
REMARK  162  A    between atoms: _388  and  _390
REMARK  163  A    between atoms: _390  and  _391
REMARK  164  A    between atoms: _393  and  _395
REMARK  165  A    between atoms: _395  and  _396
REMARK  166  A    between atoms: _395  and  _398
REMARK  167  A    between atoms: _398  and  _399
REMARK  168  A    between atoms: _405  and  _407
REMARK  169  A    between atoms: _407  and  _408
REMARK  170  A    between atoms: _407  and  _410
REMARK  171  A    between atoms: _410  and  _411
REMARK  172  A    between atoms: _414  and  _416
REMARK  173  A    between atoms: _416  and  _417
REMARK  174  A    between atoms: _416  and  _419
REMARK  175  A    between atoms: _422  and  _424
REMARK  176  A    between atoms: _424  and  _425
REMARK  177  A    between atoms: _424  and  _427
REMARK  178  A    between atoms: _427  and  _428
REMARK  179  A    between atoms: _431  and  _433
REMARK  180  A    between atoms: _433  and  _434
REMARK  181  A    between atoms: _433  and  _436
REMARK  182  A    between atoms: _436  and  _437
REMARK  183  A    between atoms: _441  and  _442
REMARK  184  A    between atoms: _447  and  _449
REMARK  185  A    between atoms: _449  and  _450
REMARK  186  A    between atoms: _449  and  _452
REMARK  187  A    between atoms: _455  and  _457
REMARK  188  A    between atoms: _457  and  _458
REMARK  189  A    between atoms: _457  and  _460
REMARK  190  A    between atoms: _460  and  _461
REMARK  191  A    between atoms: _466  and  _468
REMARK  192  A    between atoms: _468  and  _469
REMARK  193  A    between atoms: _468  and  _471
REMARK  194  A    between atoms: _471  and  _472
REMARK  195  A    between atoms: _475  and  _477
REMARK  196  A    between atoms: _477  and  _478
REMARK  197  A    between atoms: _477  and  _480
REMARK  198  A    between atoms: _480  and  _481
REMARK  199  A    between atoms: _484  and  _486
REMARK  200  A    between atoms: _486  and  _487
REMARK  201  A    between atoms: _489  and  _491
REMARK  202  A    between atoms: _491  and  _492
REMARK  203  A    between atoms: _491  and  _494
REMARK  204  A    between atoms: _494  and  _495
REMARK  205  A    between atoms: _495  and  _496
REMARK  206  A    between atoms: _496  and  _497
REMARK  207  A    between atoms: _506  and  _508
REMARK  208  A    between atoms: _508  and  _509
REMARK  209  A    between atoms: _508  and  _511
REMARK  210  A    between atoms: _511  and  _512
REMARK                            x       y       z     vdW  Elec       q    Type
REMARK                         _______ _______ _______ _____ _____    ______ ____
ROOT
ATOM      1  C   GLY A   4      19.062  30.829   8.297  0.00  0.00    +0.243 C 
ATOM      2  N   ILE A   5      18.580  31.523   9.322  0.00  0.00    -0.297 N 
ATOM      3  H   ILE A   5      19.197  31.747  10.128  0.00  0.00    +0.150 HD
ATOM      4  O   GLY A   4      18.409  30.603   7.266  0.00  0.00    -0.273 OA
ENDROOT
BRANCH   2   5
ATOM      5  CA  ILE A   5      17.199  31.971   9.326  0.00  0.00    +0.149 C 
BRANCH   5   6
ATOM      6  C   ILE A   5      16.934  33.008   8.226  0.00  0.00    +0.241 C 
ATOM      7  N   GLY A   6      17.951  33.805   7.889  0.00  0.00    -0.295 N 
ATOM      8  H   GLY A   6      18.890  33.619   8.295  0.00  0.00    +0.150 HD
ATOM      9  O   ILE A   5      15.830  33.053   7.671  0.00  0.00    -0.273 OA
BRANCH   7  10
ATOM     10  CA  GLY A   6      17.790  34.930   6.968  0.00  0.00    +0.176 C 
BRANCH  10  11
ATOM     11  C   GLY A   6      18.336  34.758   5.561  0.00  0.00    +0.243 C 
ATOM     12  N   GLY A   7      18.869  33.581   5.255  0.00  0.00    -0.295 N 
ATOM     13  H   GLY A   7      18.833  32.815   5.957  0.00  0.00    +0.150 HD
ATOM     14  O   GLY A   6      18.260  35.687   4.755  0.00  0.00    -0.273 OA
BRANCH  12  15
ATOM     15  CA  GLY A   7      19.504  33.328   3.964  0.00  0.00    +0.176 C 
BRANCH  15  16
ATOM     16  C   GLY A   7      20.784  32.531   4.106  0.00  0.00    +0.243 C 
ATOM     17  O   GLY A   7      20.960  31.781   5.078  0.00  0.00    -0.273 OA
ATOM     18  N   PHE A   8      21.679  32.692   3.134  0.00  0.00    -0.298 N 
ATOM     19  H   PHE A   8      21.473  33.371   2.374  0.00  0.00    +0.150 HD
BRANCH  18  20
ATOM     20  CA  PHE A   8      22.936  31.955   3.091  0.00  0.00    +0.141 C 
BRANCH  20  21
ATOM     21  C   PHE A   8      24.119  32.896   3.175  0.00  0.00    +0.227 C 
ATOM     22  O   PHE A   8      24.044  34.046   2.718  0.00  0.00    -0.286 OA
ENDBRANCH  20  21
BRANCH  20  23
ATOM     23  CB  PHE A   8      23.022  31.127   1.805  0.00  0.00    +0.054 C 
BRANCH  23  24
ATOM     24  CG  PHE A   8      22.212  29.877   1.864  0.00  0.00    -0.020 A 
ATOM     25  CD2 PHE A   8      22.825  28.638   2.010  0.00  0.00    -0.004 A 
ATOM     26  CE2 PHE A   8      22.067  27.494   2.105  0.00  0.00    -0.000 A 
ATOM     27  CZ  PHE A   8      20.689  27.577   2.049  0.00  0.00    -0.000 A 
ATOM     28  CE1 PHE A   8      20.074  28.797   1.914  0.00  0.00    -0.000 A 
ATOM     29  CD1 PHE A   8      20.831  29.942   1.827  0.00  0.00    -0.004 A 
ENDBRANCH  23  24
ENDBRANCH  20  23
ENDBRANCH  18  20
ENDBRANCH  15  16
ENDBRANCH  12  15
ENDBRANCH  10  11
ENDBRANCH   7  10
ENDBRANCH   5   6
BRANCH   5  30
ATOM     30  CB  ILE A   5      16.759  32.499  10.717  0.00  0.00    +0.027 C 
ATOM     31  CG2 ILE A   5      17.208  33.932  10.921  0.00  0.00    +0.002 C 
BRANCH  30  32
ATOM     32  CG1 ILE A   5      15.235  32.362  10.872  0.00  0.00    +0.002 C 
ATOM     33  CD1 ILE A   5      14.724  32.666  12.278  0.00  0.00    +0.000 C 
ENDBRANCH  30  32
ENDBRANCH   5  30
ENDBRANCH   2   5
BRANCH   1  34
ATOM     34  CA  GLY A   4      20.488  30.355   8.426  0.00  0.00    +0.176 C 
BRANCH  34  37
ATOM     35  C   GLY A   3      21.934  29.008   6.997  0.00  0.00    +0.243 C 
ATOM     36  O   GLY A   3      22.619  28.596   7.942  0.00  0.00    -0.273 OA
ATOM     37  N   GLY A   4      20.933  29.863   7.135  0.00  0.00    -0.295 N 
ATOM     38  H   GLY A   4      20.444  30.197   6.280  0.00  0.00    +0.150 HD
BRANCH  35  39
ATOM     39  CA  GLY A   3      22.200  28.556   5.576  0.00  0.00    +0.176 C 
BRANCH  39  41
ATOM     40  C   ILE A   2      24.576  28.518   5.028  0.00  0.00    +0.241 C 
ATOM     41  N   GLY A   3      23.480  27.891   5.440  0.00  0.00    -0.295 N 
ATOM     42  H   GLY A   3      23.543  26.880   5.675  0.00  0.00    +0.150 HD
ATOM     43  O   ILE A   2      24.617  29.717   4.734  0.00  0.00    -0.273 OA
BRANCH  40  44
ATOM     44  CA  ILE A   2      25.818  27.644   4.941  0.00  0.00    +0.148 C 
BRANCH  44  46
ATOM     45  C   MET A   1      27.333  27.430   3.040  0.00  0.00    +0.238 C 
ATOM     46  N   ILE A   2      26.791  28.183   3.996  0.00  0.00    -0.297 N 
ATOM     47  H   ILE A   2      27.069  29.182   4.071  0.00  0.00    +0.150 HD
ATOM     48  O   MET A   1      27.146  26.216   2.945  0.00  0.00    -0.274 OA
BRANCH  45  49
ATOM     49  CA  MET A   1      28.257  28.132   2.073  0.00  0.00    +0.146 C 
BRANCH  49  50
ATOM     50  N   MET A   1      29.427  27.296   1.836  0.00  0.00    -0.238 NA
ATOM     51  H   MET A   1      29.298  26.328   1.477  0.00  0.00    +0.142 HD
ENDBRANCH  49  50
BRANCH  49  52
ATOM     52  CB  MET A   1      27.539  28.430   0.767  0.00  0.00    +0.038 C 
BRANCH  52  53
ATOM     53  CG  MET A   1      28.277  29.421  -0.108  0.00  0.00    +0.060 C 
BRANCH  53  54
ATOM     54  SD  MET A   1      27.406  29.753  -1.640  0.00  0.00    -0.139 S 
ATOM     55  CE  MET A   1      25.903  30.510  -1.026  0.00  0.00    +0.069 C 
ENDBRANCH  53  54
ENDBRANCH  52  53
ENDBRANCH  49  52
ENDBRANCH  45  49
ENDBRANCH  44  46
BRANCH  44  56
ATOM     56  CB  ILE A   2      26.412  27.450   6.357  0.00  0.00    +0.027 C 
ATOM     57  CG2 ILE A   2      27.577  26.468   6.310  0.00  0.00    +0.002 C 
BRANCH  56  58
ATOM     58  CG1 ILE A   2      26.873  28.779   6.972  0.00  0.00    +0.002 C 
ATOM     59  CD1 ILE A   2      27.261  28.653   8.432  0.00  0.00    +0.000 C 
ENDBRANCH  56  58
ENDBRANCH  44  56
ENDBRANCH  40  44
ENDBRANCH  39  41
ENDBRANCH  35  39
ENDBRANCH  34  37
ENDBRANCH   1  34
TORSDOF 25
REMARK  Name = ../refined-set-2016/2i0a/2i0a_pocket.pdb
REMARK  210 active torsions:
REMARK  status: ('A' for Active; 'I' for Inactive)
REMARK    1  A    between atoms: _1  and  _3
REMARK    2  A    between atoms: _3  and  _4
REMARK    3  A    between atoms: _3  and  _6
REMARK    4  A    between atoms: _6  and  _7
REMARK    5  A    between atoms: _7  and  _8
REMARK    6  A    between atoms: _8  and  _9
REMARK    7  A    between atoms: _18  and  _20
REMARK    8  A    between atoms: _20  and  _21
REMARK    9  A    between atoms: _20  and  _23
REMARK   10  A    between atoms: _23  and  _24
REMARK   11  A    between atoms: _27  and  _29
REMARK   12  A    between atoms: _29  and  _30
REMARK   13  A    between atoms: _29  and  _32
REMARK   14  A    between atoms: _32  and  _33
REMARK   15  A    between atoms: _36  and  _38
REMARK   16  A    between atoms: _38  and  _39
REMARK   17  A    between atoms: _38  and  _41
REMARK   18  A    between atoms: _41  and  _42
REMARK   19  A    between atoms: _45  and  _47
REMARK   20  A    between atoms: _47  and  _48
REMARK   21  A    between atoms: _47  and  _50
REMARK   22  A    between atoms: _50  and  _51
REMARK   23  A    between atoms: _54  and  _56
REMARK   24  A    between atoms: _56  and  _57
REMARK   25  A    between atoms: _59  and  _61
REMARK   26  A    between atoms: _61  and  _62
REMARK   27  A    between atoms: _65  and  _67
REMARK   28  A    between atoms: _67  and  _68
REMARK   29  A    between atoms: _67  and  _70
REMARK   30  A    between atoms: _70  and  _71
REMARK   31  A    between atoms: _74  and  _76
REMARK   32  A    between atoms: _76  and  _77
REMARK   33  A    between atoms: _76  and  _79
REMARK   34  A    between atoms: _79  and  _80
REMARK   35  A    between atoms: _83  and  _85
REMARK   36  A    between atoms: _85  and  _86
REMARK   37  A    between atoms: _85  and  _88
REMARK   38  A    between atoms: _88  and  _89
REMARK   39  A    between atoms: _92  and  _94
REMARK   40  A    between atoms: _94  and  _95
REMARK   41  A    between atoms: _94  and  _97
REMARK   42  A    between atoms: _100  and  _102
REMARK   43  A    between atoms: _102  and  _103
REMARK   44  A    between atoms: _102  and  _105
REMARK   45  A    between atoms: _105  and  _106
REMARK   46  A    between atoms: _106  and  _107
REMARK   47  A    between atoms: _109  and  _111
REMARK   48  A    between atoms: _111  and  _112
REMARK   49  A    between atoms: _111  and  _114
REMARK   50  A    between atoms: _114  and  _115
REMARK   51  A    between atoms: _118  and  _120
REMARK   52  A    between atoms: _120  and  _121
REMARK   53  A    between atoms: _123  and  _125
REMARK   54  A    between atoms: _125  and  _126
REMARK   55  A    between atoms: _128  and  _130
REMARK   56  A    between atoms: _130  and  _131
REMARK   57  A    between atoms: _130  and  _133
REMARK   58  A    between atoms: _133  and  _134
REMARK   59  A    between atoms: _137  and  _139
REMARK   60  A    between atoms: _139  and  _140
REMARK   61  A    between atoms: _142  and  _144
REMARK   62  A    between atoms: _144  and  _145
REMARK   63  A    between atoms: _147  and  _149
REMARK   64  A    between atoms: _149  and  _150
REMARK   65  A    between atoms: _149  and  _152
REMARK   66  A    between atoms: _152  and  _153
REMARK   67  A    between atoms: _159  and  _161
REMARK   68  A    between atoms: _161  and  _162
REMARK   69  A    between atoms: _161  and  _164
REMARK   70  A    between atoms: _164  and  _165
REMARK   71  A    between atoms: _169  and  _170
REMARK   72  A    between atoms: _175  and  _177
REMARK   73  A    between atoms: _177  and  _178
REMARK   74  A    between atoms: _177  and  _180
REMARK   75  A    between atoms: _183  and  _185
REMARK   76  A    between atoms: _185  and  _186
REMARK   77  A    between atoms: _185  and  _188
REMARK   78  A    between atoms: _188  and  _189
REMARK   79  A    between atoms: _194  and  _196
REMARK   80  A    between atoms: _196  and  _197
REMARK   81  A    between atoms: _196  and  _199
REMARK   82  A    between atoms: _199  and  _200
REMARK   83  A    between atoms: _203  and  _205
REMARK   84  A    between atoms: _205  and  _206
REMARK   85  A    between atoms: _205  and  _208
REMARK   86  A    between atoms: _208  and  _209
REMARK   87  A    between atoms: _212  and  _214
REMARK   88  A    between atoms: _214  and  _215
REMARK   89  A    between atoms: _217  and  _219
REMARK   90  A    between atoms: _219  and  _220
REMARK   91  A    between atoms: _219  and  _222
REMARK   92  A    between atoms: _222  and  _223
REMARK   93  A    between atoms: _223  and  _224
REMARK   94  A    between atoms: _224  and  _225
REMARK   95  A    between atoms: _234  and  _236
REMARK   96  A    between atoms: _236  and  _237
REMARK   97  A    between atoms: _236  and  _239
REMARK   98  A    between atoms: _239  and  _240
REMARK   99  A    between atoms: _240  and  _241
REMARK  100  A    between atoms: _241  and  _242
REMARK  101  A    between atoms: _251  and  _253
REMARK  102  A    between atoms: _253  and  _254
REMARK  103  A    between atoms: _253  and  _256
REMARK  104  A    between atoms: _256  and  _257
REMARK  105  A    between atoms: _260  and  _262
REMARK  106  A    between atoms: _262  and  _263
REMARK  107  A    between atoms: _262  and  _265
REMARK  108  A    between atoms: _265  and  _266
REMARK  109  A    between atoms: _269  and  _271
REMARK  110  A    between atoms: _271  and  _272
REMARK  111  A    between atoms: _271  and  _274
REMARK  112  A    between atoms: _274  and  _275
REMARK  113  A    between atoms: _278  and  _280
REMARK  114  A    between atoms: _280  and  _281
REMARK  115  A    between atoms: _280  and  _283
REMARK  116  A    between atoms: _283  and  _284
REMARK  117  A    between atoms: _287  and  _289
REMARK  118  A    between atoms: _289  and  _290
REMARK  119  A    between atoms: _292  and  _294
REMARK  120  A    between atoms: _294  and  _295
REMARK  121  A    between atoms: _298  and  _300
REMARK  122  A    between atoms: _300  and  _301
REMARK  123  A    between atoms: _300  and  _303
REMARK  124  A    between atoms: _303  and  _304
REMARK  125  A    between atoms: _307  and  _309
REMARK  126  A    between atoms: _309  and  _310
REMARK  127  A    between atoms: _309  and  _312
REMARK  128  A    between atoms: _312  and  _313
REMARK  129  A    between atoms: _316  and  _318
REMARK  130  A    between atoms: _318  and  _319
REMARK  131  A    between atoms: _318  and  _321
REMARK  132  A    between atoms: _321  and  _322
REMARK  133  A    between atoms: _325  and  _327
REMARK  134  A    between atoms: _327  and  _328
REMARK  135  A    between atoms: _327  and  _330
REMARK  136  A    between atoms: _333  and  _335
REMARK  137  A    between atoms: _335  and  _336
REMARK  138  A    between atoms: _335  and  _338
REMARK  139  A    between atoms: _338  and  _339
REMARK  140  A    between atoms: _339  and  _340
REMARK  141  A    between atoms: _340  and  _341
REMARK  142  A    between atoms: _341  and  _342
REMARK  143  A    between atoms: _346  and  _348
REMARK  144  A    between atoms: _348  and  _349
REMARK  145  A    between atoms: _348  and  _351
REMARK  146  A    between atoms: _351  and  _352
REMARK  147  A    between atoms: _352  and  _353
REMARK  148  A    between atoms: _355  and  _357
REMARK  149  A    between atoms: _357  and  _358
REMARK  150  A    between atoms: _357  and  _360
REMARK  151  A    between atoms: _360  and  _361
REMARK  152  A    between atoms: _364  and  _366
REMARK  153  A    between atoms: _366  and  _367
REMARK  154  A    between atoms: _369  and  _371
REMARK  155  A    between atoms: _371  and  _372
REMARK  156  A    between atoms: _374  and  _376
REMARK  157  A    between atoms: _376  and  _377
REMARK  158  A    between atoms: _376  and  _379
REMARK  159  A    between atoms: _379  and  _380
REMARK  160  A    between atoms: _383  and  _385
REMARK  161  A    between atoms: _385  and  _386
REMARK  162  A    between atoms: _388  and  _390
REMARK  163  A    between atoms: _390  and  _391
REMARK  164  A    between atoms: _393  and  _395
REMARK  165  A    between atoms: _395  and  _396
REMARK  166  A    between atoms: _395  and  _398
REMARK  167  A    between atoms: _398  and  _399
REMARK  168  A    between atoms: _405  and  _407
REMARK  169  A    between atoms: _407  and  _408
REMARK  170  A    between atoms: _407  and  _410
REMARK  171  A    between atoms: _410  and  _411
REMARK  172  A    between atoms: _414  and  _416
REMARK  173  A    between atoms: _416  and  _417
REMARK  174  A    between atoms: _416  and  _419
REMARK  175  A    between atoms: _422  and  _424
REMARK  176  A    between atoms: _424  and  _425
REMARK  177  A    between atoms: _424  and  _427
REMARK  178  A    between atoms: _427  and  _428
REMARK  179  A    between atoms: _431  and  _433
REMARK  180  A    between atoms: _433  and  _434
REMARK  181  A    between atoms: _433  and  _436
REMARK  182  A    between atoms: _436  and  _437
REMARK  183  A    between atoms: _441  and  _442
REMARK  184  A    between atoms: _447  and  _449
REMARK  185  A    between atoms: _449  and  _450
REMARK  186  A    between atoms: _449  and  _452
REMARK  187  A    between atoms: _455  and  _457
REMARK  188  A    between atoms: _457  and  _458
REMARK  189  A    between atoms: _457  and  _460
REMARK  190  A    between atoms: _460  and  _461
REMARK  191  A    between atoms: _466  and  _468
REMARK  192  A    between atoms: _468  and  _469
REMARK  193  A    between atoms: _468  and  _471
REMARK  194  A    between atoms: _471  and  _472
REMARK  195  A    between atoms: _475  and  _477
REMARK  196  A    between atoms: _477  and  _478
REMARK  197  A    between atoms: _477  and  _480
REMARK  198  A    between atoms: _480  and  _481
REMARK  199  A    between atoms: _484  and  _486
REMARK  200  A    between atoms: _486  and  _487
REMARK  201  A    between atoms: _489  and  _491
REMARK  202  A    between atoms: _491  and  _492
REMARK  203  A    between atoms: _491  and  _494
REMARK  204  A    between atoms: _494  and  _495
REMARK  205  A    between atoms: _495  and  _496
REMARK  206  A    between atoms: _496  and  _497
REMARK  207  A    between atoms: _506  and  _508
REMARK  208  A    between atoms: _508  and  _509
REMARK  209  A    between atoms: _508  and  _511
REMARK  210  A    between atoms: _511  and  _512
REMARK                            x       y       z     vdW  Elec       q    Type
REMARK                         _______ _______ _______ _____ _____    ______ ____
ROOT
ATOM      1  CA  ILE A   5      27.977  29.820  18.094  0.00  0.00    +0.149 C 
ENDROOT
BRANCH   1   4
ATOM      2  C   ASN A   4      29.053  31.978  18.409  0.00  0.00    +0.241 C 
ATOM      3  O   ASN A   4      28.468  32.153  19.487  0.00  0.00    -0.273 OA
ATOM      4  N   ILE A   5      28.874  30.893  17.661  0.00  0.00    -0.297 N 
ATOM      5  H   ILE A   5      29.378  30.806  16.756  0.00  0.00    +0.150 HD
BRANCH   2   6
ATOM      6  CA  ASN A   4      30.040  33.026  17.903  0.00  0.00    +0.158 C 
BRANCH   6   8
ATOM      7  C   VAL A   3      28.300  34.514  17.087  0.00  0.00    +0.241 C 
ATOM      8  N   ASN A   4      29.375  34.339  17.846  0.00  0.00    -0.297 N 
ATOM      9  H   ASN A   4      29.750  35.133  18.403  0.00  0.00    +0.150 HD
ATOM     10  O   VAL A   3      27.907  33.661  16.298  0.00  0.00    -0.273 OA
BRANCH   7  11
ATOM     11  CA  VAL A   3      27.553  35.835  17.212  0.00  0.00    +0.149 C 
BRANCH  11  14
ATOM     12  C   PRO A   2      26.523  37.291  15.536  0.00  0.00    +0.241 C 
ATOM     13  O   PRO A   2      26.756  38.314  16.187  0.00  0.00    -0.273 OA
ATOM     14  N   VAL A   3      26.851  36.074  15.952  0.00  0.00    -0.297 N 
ATOM     15  H   VAL A   3      26.599  35.258  15.358  0.00  0.00    +0.150 HD
BRANCH  12  18
ATOM     16  C   THR A   1      27.314  36.052  12.814  0.00  0.00    +0.244 C 
ATOM     17  N   PRO A   2      26.065  36.263  13.273  0.00  0.00    -0.272 N 
ATOM     18  CA  PRO A   2      25.807  37.389  14.187  0.00  0.00    +0.152 C 
ATOM     19  CB  PRO A   2      24.281  37.355  14.386  0.00  0.00    +0.031 C 
ATOM     20  CG  PRO A   2      23.865  35.974  14.016  0.00  0.00    +0.024 C 
ATOM     21  CD  PRO A   2      24.831  35.518  12.957  0.00  0.00    +0.094 C 
ATOM     22  O   THR A   1      28.250  36.800  13.085  0.00  0.00    -0.273 OA
BRANCH  16  23
ATOM     23  CA  THR A   1      27.552  34.846  11.899  0.00  0.00    +0.172 C 
BRANCH  23  24
ATOM     24  CB  THR A   1      27.967  33.591  12.718  0.00  0.00    +0.135 C 
ATOM     25  CG2 THR A   1      29.336  33.764  13.367  0.00  0.00    +0.034 C 
BRANCH  24  26
ATOM     26  OG1 THR A   1      26.988  33.317  13.724  0.00  0.00    -0.383 OA
ATOM     27  HG1 THR A   1      26.916  34.094  14.333  0.00  0.00    +0.210 HD
ENDBRANCH  24  26
ENDBRANCH  23  24
BRANCH  23  28
ATOM     28  N   THR A   1      28.579  35.222  10.940  0.00  0.00    -0.236 NA
ATOM     29  H   THR A   1      29.540  34.842  11.056  0.00  0.00    +0.142 HD
ENDBRANCH  23  28
ENDBRANCH  16  23
ENDBRANCH  12  18
ENDBRANCH  11  14
BRANCH  11  30
ATOM     30  CB  VAL A   3      26.555  35.803  18.398  0.00  0.00    +0.027 C 
ATOM     31  CG2 VAL A   3      27.267  35.808  19.751  0.00  0.00    +0.002 C 
ATOM     32  CG1 VAL A   3      25.621  34.614  18.304  0.00  0.00    +0.002 C 
ENDBRANCH  11  30
ENDBRANCH   7  11
ENDBRANCH   6   8
BRANCH   6  33
ATOM     33  CB  ASN A   4      31.234  33.042  18.856  0.00  0.00    +0.114 C 
BRANCH  33  34
ATOM     34  CG  ASN A   4      32.345  33.975  18.409  0.00  0.00    +0.222 C 
ATOM     35  ND2 ASN A   4      33.008  34.600  19.385  0.00  0.00    -0.329 N 
ATOM     36 HD21 ASN A   4      32.747  34.436  20.378  0.00  0.00    +0.145 HD
ATOM     37 HD22 ASN A   4      33.785  35.251  19.152  0.00  0.00    +0.145 HD
ATOM     38  OD1 ASN A   4      32.613  34.133  17.210  0.00  0.00    -0.275 OA
ENDBRANCH  33  34
ENDBRANCH   6  33
ENDBRANCH   2   6
ENDBRANCH   1   4
BRANCH   1  39
ATOM     39  C   ILE A   5      28.678  28.470  18.115  0.00  0.00    +0.241 C 
ATOM     40  N   ILE A   6      28.450  27.725  19.192  0.00  0.00    -0.297 N 
ATOM     41  H   ILE A   6      27.926  28.134  19.991  0.00  0.00    +0.150 HD
ATOM     42  O   ILE A   5      29.421  28.122  17.196  0.00  0.00    -0.273 OA
BRANCH  40  43
ATOM     43  CA  ILE A   6      28.913  26.363  19.277  0.00  0.00    +0.149 C 
BRANCH  43  44
ATOM     44  C   ILE A   6      27.742  25.471  18.890  0.00  0.00    +0.241 C 
ATOM     45  O   ILE A   6      26.718  25.428  19.594  0.00  0.00    -0.273 OA
ATOM     46  N   GLY A   7      27.888  24.770  17.771  0.00  0.00    -0.295 N 
ATOM     47  H   GLY A   7      28.781  24.844  17.243  0.00  0.00    +0.150 HD
BRANCH  46  48
ATOM     48  CA  GLY A   7      26.832  23.897  17.258  0.00  0.00    +0.176 C 
BRANCH  48  49
ATOM     49  C   GLY A   7      26.978  22.456  17.694  0.00  0.00    +0.243 C 
ATOM     50  O   GLY A   7      27.915  22.100  18.408  0.00  0.00    -0.273 OA
ATOM     51  N   ARG A   8      26.055  21.614  17.238  0.00  0.00    -0.298 N 
ATOM     52  H   ARG A   8      25.358  21.952  16.544  0.00  0.00    +0.150 HD
BRANCH  51  53
ATOM     53  CA  ARG A   8      25.998  20.228  17.688  0.00  0.00    +0.137 C 
BRANCH  53  54
ATOM     54  C   ARG A   8      27.256  19.423  17.368  0.00  0.00    +0.227 C 
ATOM     55  O   ARG A   8      27.577  18.484  18.090  0.00  0.00    -0.286 OA
ENDBRANCH  53  54
BRANCH  53  56
ATOM     56  CB  ARG A   8      24.765  19.515  17.128  0.00  0.00    +0.031 C 
BRANCH  56  57
ATOM     57  CG  ARG A   8      23.457  20.099  17.624  0.00  0.00    +0.045 C 
BRANCH  57  58
ATOM     58  CD  ARG A   8      22.243  19.280  17.205  0.00  0.00    +0.174 C 
BRANCH  58  59
ATOM     59  NE  ARG A   8      22.088  19.245  15.755  0.00  0.00    -0.265 N 
ATOM     60  HE  ARG A   8      21.610  20.055  15.311  0.00  0.00    +0.259 HD
ATOM     61  CZ  ARG A   8      22.503  18.270  14.947  0.00  0.00    +0.342 C 
ATOM     62  NH2 ARG A   8      23.099  17.183  15.402  0.00  0.00    -0.292 N 
ATOM     63 HH21 ARG A   8      23.259  17.066  16.423  0.00  0.00    +0.255 HD
ATOM     64 HH22 ARG A   8      23.409  16.444  14.739  0.00  0.00    +0.255 HD
ATOM     65  NH1 ARG A   8      22.317  18.396  13.644  0.00  0.00    -0.292 N 
ATOM     66 HH11 ARG A   8      21.853  19.246  13.265  0.00  0.00    +0.255 HD
ATOM     67 HH12 ARG A   8      22.634  17.645  12.998  0.00  0.00    +0.255 HD
ENDBRANCH  58  59
ENDBRANCH  57  58
ENDBRANCH  56  57
ENDBRANCH  53  56
ENDBRANCH  51  53
ENDBRANCH  48  49
ENDBRANCH  46  48
ENDBRANCH  43  44
BRANCH  43  68
ATOM     68  CB  ILE A   6      29.393  26.004  20.695  0.00  0.00    +0.027 C 
ATOM     69  CG2 ILE A   6      29.970  24.593  20.693  0.00  0.00    +0.002 C 
BRANCH  68  70
ATOM     70  CG1 ILE A   6      30.427  27.020  21.206  0.00  0.00    +0.002 C 
ATOM     71  CD1 ILE A   6      31.668  27.160  20.333  0.00  0.00    +0.000 C 
ENDBRANCH  68  70
ENDBRANCH  43  68
ENDBRANCH  40  43
ENDBRANCH   1  39
BRANCH   1  72
ATOM     72  CB  ILE A   5      26.662  29.729  17.248  0.00  0.00    +0.027 C 
ATOM     73  CG2 ILE A   5      25.879  31.037  17.345  0.00  0.00    +0.002 C 
BRANCH  72  74
ATOM     74  CG1 ILE A   5      26.928  29.366  15.777  0.00  0.00    +0.002 C 
ATOM     75  CD1 ILE A   5      25.663  29.361  14.928  0.00  0.00    +0.000 C 
ENDBRANCH  72  74
ENDBRANCH   1  72
TORSDOF 28
REMARK  Name = ../refined-set-2016/2i0a/2i0a_pocket.pdb
REMARK  210 active torsions:
REMARK  status: ('A' for Active; 'I' for Inactive)
REMARK    1  A    between atoms: _1  and  _3
REMARK    2  A    between atoms: _3  and  _4
REMARK    3  A    between atoms: _3  and  _6
REMARK    4  A    between atoms: _6  and  _7
REMARK    5  A    between atoms: _7  and  _8
REMARK    6  A    between atoms: _8  and  _9
REMARK    7  A    between atoms: _18  and  _20
REMARK    8  A    between atoms: _20  and  _21
REMARK    9  A    between atoms: _20  and  _23
REMARK   10  A    between atoms: _23  and  _24
REMARK   11  A    between atoms: _27  and  _29
REMARK   12  A    between atoms: _29  and  _30
REMARK   13  A    between atoms: _29  and  _32
REMARK   14  A    between atoms: _32  and  _33
REMARK   15  A    between atoms: _36  and  _38
REMARK   16  A    between atoms: _38  and  _39
REMARK   17  A    between atoms: _38  and  _41
REMARK   18  A    between atoms: _41  and  _42
REMARK   19  A    between atoms: _45  and  _47
REMARK   20  A    between atoms: _47  and  _48
REMARK   21  A    between atoms: _47  and  _50
REMARK   22  A    between atoms: _50  and  _51
REMARK   23  A    between atoms: _54  and  _56
REMARK   24  A    between atoms: _56  and  _57
REMARK   25  A    between atoms: _59  and  _61
REMARK   26  A    between atoms: _61  and  _62
REMARK   27  A    between atoms: _65  and  _67
REMARK   28  A    between atoms: _67  and  _68
REMARK   29  A    between atoms: _67  and  _70
REMARK   30  A    between atoms: _70  and  _71
REMARK   31  A    between atoms: _74  and  _76
REMARK   32  A    between atoms: _76  and  _77
REMARK   33  A    between atoms: _76  and  _79
REMARK   34  A    between atoms: _79  and  _80
REMARK   35  A    between atoms: _83  and  _85
REMARK   36  A    between atoms: _85  and  _86
REMARK   37  A    between atoms: _85  and  _88
REMARK   38  A    between atoms: _88  and  _89
REMARK   39  A    between atoms: _92  and  _94
REMARK   40  A    between atoms: _94  and  _95
REMARK   41  A    between atoms: _94  and  _97
REMARK   42  A    between atoms: _100  and  _102
REMARK   43  A    between atoms: _102  and  _103
REMARK   44  A    between atoms: _102  and  _105
REMARK   45  A    between atoms: _105  and  _106
REMARK   46  A    between atoms: _106  and  _107
REMARK   47  A    between atoms: _109  and  _111
REMARK   48  A    between atoms: _111  and  _112
REMARK   49  A    between atoms: _111  and  _114
REMARK   50  A    between atoms: _114  and  _115
REMARK   51  A    between atoms: _118  and  _120
REMARK   52  A    between atoms: _120  and  _121
REMARK   53  A    between atoms: _123  and  _125
REMARK   54  A    between atoms: _125  and  _126
REMARK   55  A    between atoms: _128  and  _130
REMARK   56  A    between atoms: _130  and  _131
REMARK   57  A    between atoms: _130  and  _133
REMARK   58  A    between atoms: _133  and  _134
REMARK   59  A    between atoms: _137  and  _139
REMARK   60  A    between atoms: _139  and  _140
REMARK   61  A    between atoms: _142  and  _144
REMARK   62  A    between atoms: _144  and  _145
REMARK   63  A    between atoms: _147  and  _149
REMARK   64  A    between atoms: _149  and  _150
REMARK   65  A    between atoms: _149  and  _152
REMARK   66  A    between atoms: _152  and  _153
REMARK   67  A    between atoms: _159  and  _161
REMARK   68  A    between atoms: _161  and  _162
REMARK   69  A    between atoms: _161  and  _164
REMARK   70  A    between atoms: _164  and  _165
REMARK   71  A    between atoms: _169  and  _170
REMARK   72  A    between atoms: _175  and  _177
REMARK   73  A    between atoms: _177  and  _178
REMARK   74  A    between atoms: _177  and  _180
REMARK   75  A    between atoms: _183  and  _185
REMARK   76  A    between atoms: _185  and  _186
REMARK   77  A    between atoms: _185  and  _188
REMARK   78  A    between atoms: _188  and  _189
REMARK   79  A    between atoms: _194  and  _196
REMARK   80  A    between atoms: _196  and  _197
REMARK   81  A    between atoms: _196  and  _199
REMARK   82  A    between atoms: _199  and  _200
REMARK   83  A    between atoms: _203  and  _205
REMARK   84  A    between atoms: _205  and  _206
REMARK   85  A    between atoms: _205  and  _208
REMARK   86  A    between atoms: _208  and  _209
REMARK   87  A    between atoms: _212  and  _214
REMARK   88  A    between atoms: _214  and  _215
REMARK   89  A    between atoms: _217  and  _219
REMARK   90  A    between atoms: _219  and  _220
REMARK   91  A    between atoms: _219  and  _222
REMARK   92  A    between atoms: _222  and  _223
REMARK   93  A    between atoms: _223  and  _224
REMARK   94  A    between atoms: _224  and  _225
REMARK   95  A    between atoms: _234  and  _236
REMARK   96  A    between atoms: _236  and  _237
REMARK   97  A    between atoms: _236  and  _239
REMARK   98  A    between atoms: _239  and  _240
REMARK   99  A    between atoms: _240  and  _241
REMARK  100  A    between atoms: _241  and  _242
REMARK  101  A    between atoms: _251  and  _253
REMARK  102  A    between atoms: _253  and  _254
REMARK  103  A    between atoms: _253  and  _256
REMARK  104  A    between atoms: _256  and  _257
REMARK  105  A    between atoms: _260  and  _262
REMARK  106  A    between atoms: _262  and  _263
REMARK  107  A    between atoms: _262  and  _265
REMARK  108  A    between atoms: _265  and  _266
REMARK  109  A    between atoms: _269  and  _271
REMARK  110  A    between atoms: _271  and  _272
REMARK  111  A    between atoms: _271  and  _274
REMARK  112  A    between atoms: _274  and  _275
REMARK  113  A    between atoms: _278  and  _280
REMARK  114  A    between atoms: _280  and  _281
REMARK  115  A    between atoms: _280  and  _283
REMARK  116  A    between atoms: _283  and  _284
REMARK  117  A    between atoms: _287  and  _289
REMARK  118  A    between atoms: _289  and  _290
REMARK  119  A    between atoms: _292  and  _294
REMARK  120  A    between atoms: _294  and  _295
REMARK  121  A    between atoms: _298  and  _300
REMARK  122  A    between atoms: _300  and  _301
REMARK  123  A    between atoms: _300  and  _303
REMARK  124  A    between atoms: _303  and  _304
REMARK  125  A    between atoms: _307  and  _309
REMARK  126  A    between atoms: _309  and  _310
REMARK  127  A    between atoms: _309  and  _312
REMARK  128  A    between atoms: _312  and  _313
REMARK  129  A    between atoms: _316  and  _318
REMARK  130  A    between atoms: _318  and  _319
REMARK  131  A    between atoms: _318  and  _321
REMARK  132  A    between atoms: _321  and  _322
REMARK  133  A    between atoms: _325  and  _327
REMARK  134  A    between atoms: _327  and  _328
REMARK  135  A    between atoms: _327  and  _330
REMARK  136  A    between atoms: _333  and  _335
REMARK  137  A    between atoms: _335  and  _336
REMARK  138  A    between atoms: _335  and  _338
REMARK  139  A    between atoms: _338  and  _339
REMARK  140  A    between atoms: _339  and  _340
REMARK  141  A    between atoms: _340  and  _341
REMARK  142  A    between atoms: _341  and  _342
REMARK  143  A    between atoms: _346  and  _348
REMARK  144  A    between atoms: _348  and  _349
REMARK  145  A    between atoms: _348  and  _351
REMARK  146  A    between atoms: _351  and  _352
REMARK  147  A    between atoms: _352  and  _353
REMARK  148  A    between atoms: _355  and  _357
REMARK  149  A    between atoms: _357  and  _358
REMARK  150  A    between atoms: _357  and  _360
REMARK  151  A    between atoms: _360  and  _361
REMARK  152  A    between atoms: _364  and  _366
REMARK  153  A    between atoms: _366  and  _367
REMARK  154  A    between atoms: _369  and  _371
REMARK  155  A    between atoms: _371  and  _372
REMARK  156  A    between atoms: _374  and  _376
REMARK  157  A    between atoms: _376  and  _377
REMARK  158  A    between atoms: _376  and  _379
REMARK  159  A    between atoms: _379  and  _380
REMARK  160  A    between atoms: _383  and  _385
REMARK  161  A    between atoms: _385  and  _386
REMARK  162  A    between atoms: _388  and  _390
REMARK  163  A    between atoms: _390  and  _391
REMARK  164  A    between atoms: _393  and  _395
REMARK  165  A    between atoms: _395  and  _396
REMARK  166  A    between atoms: _395  and  _398
REMARK  167  A    between atoms: _398  and  _399
REMARK  168  A    between atoms: _405  and  _407
REMARK  169  A    between atoms: _407  and  _408
REMARK  170  A    between atoms: _407  and  _410
REMARK  171  A    between atoms: _410  and  _411
REMARK  172  A    between atoms: _414  and  _416
REMARK  173  A    between atoms: _416  and  _417
REMARK  174  A    between atoms: _416  and  _419
REMARK  175  A    between atoms: _422  and  _424
REMARK  176  A    between atoms: _424  and  _425
REMARK  177  A    between atoms: _424  and  _427
REMARK  178  A    between atoms: _427  and  _428
REMARK  179  A    between atoms: _431  and  _433
REMARK  180  A    between atoms: _433  and  _434
REMARK  181  A    between atoms: _433  and  _436
REMARK  182  A    between atoms: _436  and  _437
REMARK  183  A    between atoms: _441  and  _442
REMARK  184  A    between atoms: _447  and  _449
REMARK  185  A    between atoms: _449  and  _450
REMARK  186  A    between atoms: _449  and  _452
REMARK  187  A    between atoms: _455  and  _457
REMARK  188  A    between atoms: _457  and  _458
REMARK  189  A    between atoms: _457  and  _460
REMARK  190  A    between atoms: _460  and  _461
REMARK  191  A    between atoms: _466  and  _468
REMARK  192  A    between atoms: _468  and  _469
REMARK  193  A    between atoms: _468  and  _471
REMARK  194  A    between atoms: _471  and  _472
REMARK  195  A    between atoms: _475  and  _477
REMARK  196  A    between atoms: _477  and  _478
REMARK  197  A    between atoms: _477  and  _480
REMARK  198  A    between atoms: _480  and  _481
REMARK  199  A    between atoms: _484  and  _486
REMARK  200  A    between atoms: _486  and  _487
REMARK  201  A    between atoms: _489  and  _491
REMARK  202  A    between atoms: _491  and  _492
REMARK  203  A    between atoms: _491  and  _494
REMARK  204  A    between atoms: _494  and  _495
REMARK  205  A    between atoms: _495  and  _496
REMARK  206  A    between atoms: _496  and  _497
REMARK  207  A    between atoms: _506  and  _508
REMARK  208  A    between atoms: _508  and  _509
REMARK  209  A    between atoms: _508  and  _511
REMARK  210  A    between atoms: _511  and  _512
REMARK                            x       y       z     vdW  Elec       q    Type
REMARK                         _______ _______ _______ _____ _____    ______ ____
ROOT
ATOM      1  NE  ARG A   1      18.951  20.289  11.327  0.00  0.00    -0.265 N 
ATOM      2  HE  ARG A   1      19.916  19.912  11.233  0.00  0.00    +0.259 HD
ATOM      3  CZ  ARG A   1      18.597  21.300  10.531  0.00  0.00    +0.342 C 
ATOM      4  NH2 ARG A   1      17.376  21.829  10.596  0.00  0.00    -0.292 N 
ATOM      5 HH21 ARG A   1      16.682  21.454  11.274  0.00  0.00    +0.255 HD
ATOM      6 HH22 ARG A   1      17.116  22.617   9.968  0.00  0.00    +0.255 HD
ATOM      7  NH1 ARG A   1      19.471  21.793   9.667  0.00  0.00    -0.292 N 
ATOM      8 HH11 ARG A   1      20.429  21.392   9.611  0.00  0.00    +0.255 HD
ATOM      9 HH12 ARG A   1      19.199  22.581   9.045  0.00  0.00    +0.255 HD
ENDROOT
BRANCH   1  10
ATOM     10  CD  ARG A   1      18.074  19.678  12.320  0.00  0.00    +0.174 C 
BRANCH  10  11
ATOM     11  CG  ARG A   1      18.844  19.026  13.424  0.00  0.00    +0.045 C 
BRANCH  11  12
ATOM     12  CB  ARG A   1      17.905  18.483  14.463  0.00  0.00    +0.029 C 
BRANCH  12  13
ATOM     13  CA  ARG A   1      18.615  17.856  15.648  0.00  0.00    +0.133 C 
BRANCH  13  14
ATOM     14  N   ARG A   1      19.315  16.644  15.246  0.00  0.00    -0.239 NA
ATOM     15  H   ARG A   1      19.263  16.320  14.259  0.00  0.00    +0.142 HD
ENDBRANCH  13  14
BRANCH  13  16
ATOM     16  C   ARG A   1      17.593  17.536  16.737  0.00  0.00    +0.224 C 
ATOM     17  O   ARG A   1      16.873  16.535  16.625  0.00  0.00    -0.287 OA
ENDBRANCH  13  16
ENDBRANCH  12  13
ENDBRANCH  11  12
ENDBRANCH  10  11
ENDBRANCH   1  10
TORSDOF 6
REMARK  Name = ../refined-set-2016/2i0a/2i0a_pocket.pdb
REMARK  210 active torsions:
REMARK  status: ('A' for Active; 'I' for Inactive)
REMARK    1  A    between atoms: _1  and  _3
REMARK    2  A    between atoms: _3  and  _4
REMARK    3  A    between atoms: _3  and  _6
REMARK    4  A    between atoms: _6  and  _7
REMARK    5  A    between atoms: _7  and  _8
REMARK    6  A    between atoms: _8  and  _9
REMARK    7  A    between atoms: _18  and  _20
REMARK    8  A    between atoms: _20  and  _21
REMARK    9  A    between atoms: _20  and  _23
REMARK   10  A    between atoms: _23  and  _24
REMARK   11  A    between atoms: _27  and  _29
REMARK   12  A    between atoms: _29  and  _30
REMARK   13  A    between atoms: _29  and  _32
REMARK   14  A    between atoms: _32  and  _33
REMARK   15  A    between atoms: _36  and  _38
REMARK   16  A    between atoms: _38  and  _39
REMARK   17  A    between atoms: _38  and  _41
REMARK   18  A    between atoms: _41  and  _42
REMARK   19  A    between atoms: _45  and  _47
REMARK   20  A    between atoms: _47  and  _48
REMARK   21  A    between atoms: _47  and  _50
REMARK   22  A    between atoms: _50  and  _51
REMARK   23  A    between atoms: _54  and  _56
REMARK   24  A    between atoms: _56  and  _57
REMARK   25  A    between atoms: _59  and  _61
REMARK   26  A    between atoms: _61  and  _62
REMARK   27  A    between atoms: _65  and  _67
REMARK   28  A    between atoms: _67  and  _68
REMARK   29  A    between atoms: _67  and  _70
REMARK   30  A    between atoms: _70  and  _71
REMARK   31  A    between atoms: _74  and  _76
REMARK   32  A    between atoms: _76  and  _77
REMARK   33  A    between atoms: _76  and  _79
REMARK   34  A    between atoms: _79  and  _80
REMARK   35  A    between atoms: _83  and  _85
REMARK   36  A    between atoms: _85  and  _86
REMARK   37  A    between atoms: _85  and  _88
REMARK   38  A    between atoms: _88  and  _89
REMARK   39  A    between atoms: _92  and  _94
REMARK   40  A    between atoms: _94  and  _95
REMARK   41  A    between atoms: _94  and  _97
REMARK   42  A    between atoms: _100  and  _102
REMARK   43  A    between atoms: _102  and  _103
REMARK   44  A    between atoms: _102  and  _105
REMARK   45  A    between atoms: _105  and  _106
REMARK   46  A    between atoms: _106  and  _107
REMARK   47  A    between atoms: _109  and  _111
REMARK   48  A    between atoms: _111  and  _112
REMARK   49  A    between atoms: _111  and  _114
REMARK   50  A    between atoms: _114  and  _115
REMARK   51  A    between atoms: _118  and  _120
REMARK   52  A    between atoms: _120  and  _121
REMARK   53  A    between atoms: _123  and  _125
REMARK   54  A    between atoms: _125  and  _126
REMARK   55  A    between atoms: _128  and  _130
REMARK   56  A    between atoms: _130  and  _131
REMARK   57  A    between atoms: _130  and  _133
REMARK   58  A    between atoms: _133  and  _134
REMARK   59  A    between atoms: _137  and  _139
REMARK   60  A    between atoms: _139  and  _140
REMARK   61  A    between atoms: _142  and  _144
REMARK   62  A    between atoms: _144  and  _145
REMARK   63  A    between atoms: _147  and  _149
REMARK   64  A    between atoms: _149  and  _150
REMARK   65  A    between atoms: _149  and  _152
REMARK   66  A    between atoms: _152  and  _153
REMARK   67  A    between atoms: _159  and  _161
REMARK   68  A    between atoms: _161  and  _162
REMARK   69  A    between atoms: _161  and  _164
REMARK   70  A    between atoms: _164  and  _165
REMARK   71  A    between atoms: _169  and  _170
REMARK   72  A    between atoms: _175  and  _177
REMARK   73  A    between atoms: _177  and  _178
REMARK   74  A    between atoms: _177  and  _180
REMARK   75  A    between atoms: _183  and  _185
REMARK   76  A    between atoms: _185  and  _186
REMARK   77  A    between atoms: _185  and  _188
REMARK   78  A    between atoms: _188  and  _189
REMARK   79  A    between atoms: _194  and  _196
REMARK   80  A    between atoms: _196  and  _197
REMARK   81  A    between atoms: _196  and  _199
REMARK   82  A    between atoms: _199  and  _200
REMARK   83  A    between atoms: _203  and  _205
REMARK   84  A    between atoms: _205  and  _206
REMARK   85  A    between atoms: _205  and  _208
REMARK   86  A    between atoms: _208  and  _209
REMARK   87  A    between atoms: _212  and  _214
REMARK   88  A    between atoms: _214  and  _215
REMARK   89  A    between atoms: _217  and  _219
REMARK   90  A    between atoms: _219  and  _220
REMARK   91  A    between atoms: _219  and  _222
REMARK   92  A    between atoms: _222  and  _223
REMARK   93  A    between atoms: _223  and  _224
REMARK   94  A    between atoms: _224  and  _225
REMARK   95  A    between atoms: _234  and  _236
REMARK   96  A    between atoms: _236  and  _237
REMARK   97  A    between atoms: _236  and  _239
REMARK   98  A    between atoms: _239  and  _240
REMARK   99  A    between atoms: _240  and  _241
REMARK  100  A    between atoms: _241  and  _242
REMARK  101  A    between atoms: _251  and  _253
REMARK  102  A    between atoms: _253  and  _254
REMARK  103  A    between atoms: _253  and  _256
REMARK  104  A    between atoms: _256  and  _257
REMARK  105  A    between atoms: _260  and  _262
REMARK  106  A    between atoms: _262  and  _263
REMARK  107  A    between atoms: _262  and  _265
REMARK  108  A    between atoms: _265  and  _266
REMARK  109  A    between atoms: _269  and  _271
REMARK  110  A    between atoms: _271  and  _272
REMARK  111  A    between atoms: _271  and  _274
REMARK  112  A    between atoms: _274  and  _275
REMARK  113  A    between atoms: _278  and  _280
REMARK  114  A    between atoms: _280  and  _281
REMARK  115  A    between atoms: _280  and  _283
REMARK  116  A    between atoms: _283  and  _284
REMARK  117  A    between atoms: _287  and  _289
REMARK  118  A    between atoms: _289  and  _290
REMARK  119  A    between atoms: _292  and  _294
REMARK  120  A    between atoms: _294  and  _295
REMARK  121  A    between atoms: _298  and  _300
REMARK  122  A    between atoms: _300  and  _301
REMARK  123  A    between atoms: _300  and  _303
REMARK  124  A    between atoms: _303  and  _304
REMARK  125  A    between atoms: _307  and  _309
REMARK  126  A    between atoms: _309  and  _310
REMARK  127  A    between atoms: _309  and  _312
REMARK  128  A    between atoms: _312  and  _313
REMARK  129  A    between atoms: _316  and  _318
REMARK  130  A    between atoms: _318  and  _319
REMARK  131  A    between atoms: _318  and  _321
REMARK  132  A    between atoms: _321  and  _322
REMARK  133  A    between atoms: _325  and  _327
REMARK  134  A    between atoms: _327  and  _328
REMARK  135  A    between atoms: _327  and  _330
REMARK  136  A    between atoms: _333  and  _335
REMARK  137  A    between atoms: _335  and  _336
REMARK  138  A    between atoms: _335  and  _338
REMARK  139  A    between atoms: _338  and  _339
REMARK  140  A    between atoms: _339  and  _340
REMARK  141  A    between atoms: _340  and  _341
REMARK  142  A    between atoms: _341  and  _342
REMARK  143  A    between atoms: _346  and  _348
REMARK  144  A    between atoms: _348  and  _349
REMARK  145  A    between atoms: _348  and  _351
REMARK  146  A    between atoms: _351  and  _352
REMARK  147  A    between atoms: _352  and  _353
REMARK  148  A    between atoms: _355  and  _357
REMARK  149  A    between atoms: _357  and  _358
REMARK  150  A    between atoms: _357  and  _360
REMARK  151  A    between atoms: _360  and  _361
REMARK  152  A    between atoms: _364  and  _366
REMARK  153  A    between atoms: _366  and  _367
REMARK  154  A    between atoms: _369  and  _371
REMARK  155  A    between atoms: _371  and  _372
REMARK  156  A    between atoms: _374  and  _376
REMARK  157  A    between atoms: _376  and  _377
REMARK  158  A    between atoms: _376  and  _379
REMARK  159  A    between atoms: _379  and  _380
REMARK  160  A    between atoms: _383  and  _385
REMARK  161  A    between atoms: _385  and  _386
REMARK  162  A    between atoms: _388  and  _390
REMARK  163  A    between atoms: _390  and  _391
REMARK  164  A    between atoms: _393  and  _395
REMARK  165  A    between atoms: _395  and  _396
REMARK  166  A    between atoms: _395  and  _398
REMARK  167  A    between atoms: _398  and  _399
REMARK  168  A    between atoms: _405  and  _407
REMARK  169  A    between atoms: _407  and  _408
REMARK  170  A    between atoms: _407  and  _410
REMARK  171  A    between atoms: _410  and  _411
REMARK  172  A    between atoms: _414  and  _416
REMARK  173  A    between atoms: _416  and  _417
REMARK  174  A    between atoms: _416  and  _419
REMARK  175  A    between atoms: _422  and  _424
REMARK  176  A    between atoms: _424  and  _425
REMARK  177  A    between atoms: _424  and  _427
REMARK  178  A    between atoms: _427  and  _428
REMARK  179  A    between atoms: _431  and  _433
REMARK  180  A    between atoms: _433  and  _434
REMARK  181  A    between atoms: _433  and  _436
REMARK  182  A    between atoms: _436  and  _437
REMARK  183  A    between atoms: _441  and  _442
REMARK  184  A    between atoms: _447  and  _449
REMARK  185  A    between atoms: _449  and  _450
REMARK  186  A    between atoms: _449  and  _452
REMARK  187  A    between atoms: _455  and  _457
REMARK  188  A    between atoms: _457  and  _458
REMARK  189  A    between atoms: _457  and  _460
REMARK  190  A    between atoms: _460  and  _461
REMARK  191  A    between atoms: _466  and  _468
REMARK  192  A    between atoms: _468  and  _469
REMARK  193  A    between atoms: _468  and  _471
REMARK  194  A    between atoms: _471  and  _472
REMARK  195  A    between atoms: _475  and  _477
REMARK  196  A    between atoms: _477  and  _478
REMARK  197  A    between atoms: _477  and  _480
REMARK  198  A    between atoms: _480  and  _481
REMARK  199  A    between atoms: _484  and  _486
REMARK  200  A    between atoms: _486  and  _487
REMARK  201  A    between atoms: _489  and  _491
REMARK  202  A    between atoms: _491  and  _492
REMARK  203  A    between atoms: _491  and  _494
REMARK  204  A    between atoms: _494  and  _495
REMARK  205  A    between atoms: _495  and  _496
REMARK  206  A    between atoms: _496  and  _497
REMARK  207  A    between atoms: _506  and  _508
REMARK  208  A    between atoms: _508  and  _509
REMARK  209  A    between atoms: _508  and  _511
REMARK  210  A    between atoms: _511  and  _512
REMARK                            x       y       z     vdW  Elec       q    Type
REMARK                         _______ _______ _______ _____ _____    ______ ____
ROOT
ATOM      1  C   GLY A   5      19.595  30.718  20.304  0.00  0.00    +0.243 C 
ATOM      2  N   ALA A   6      18.322  30.467  20.591  0.00  0.00    -0.297 N 
ATOM      3  H   ALA A   6      18.096  29.610  21.135  0.00  0.00    +0.150 HD
ATOM      4  O   GLY A   5      19.964  31.747  19.738  0.00  0.00    -0.273 OA
ENDROOT
BRANCH   2   5
ATOM      5  CA  ALA A   6      17.224  31.340  20.178  0.00  0.00    +0.149 C 
ATOM      6  CB  ALA A   6      16.133  30.515  19.496  0.00  0.00    +0.031 C 
BRANCH   5   7
ATOM      7  C   ALA A   6      16.654  32.044  21.398  0.00  0.00    +0.241 C 
ATOM      8  O   ALA A   6      16.142  31.383  22.307  0.00  0.00    -0.273 OA
ATOM      9  N   ASP A   7      16.732  33.373  21.440  0.00  0.00    -0.297 N 
ATOM     10  H   ASP A   7      17.219  33.887  20.679  0.00  0.00    +0.150 HD
BRANCH   9  11
ATOM     11  CA  ASP A   7      16.130  34.119  22.563  0.00  0.00    +0.160 C 
BRANCH  11  12
ATOM     12  C   ASP A   7      14.623  33.921  22.615  0.00  0.00    +0.241 C 
ATOM     13  O   ASP A   7      14.030  33.780  23.699  0.00  0.00    -0.273 OA
ATOM     14  N   ASP A   8      14.019  33.949  21.428  0.00  0.00    -0.297 N 
ATOM     15  H   ASP A   8      14.616  33.980  20.577  0.00  0.00    +0.150 HD
BRANCH  14  16
ATOM     16  CA  ASP A   8      12.580  33.939  21.251  0.00  0.00    +0.160 C 
BRANCH  16  17
ATOM     17  C   ASP A   8      12.151  32.713  20.447  0.00  0.00    +0.241 C 
ATOM     18  N   THR A   9      10.861  32.415  20.516  0.00  0.00    -0.295 N 
ATOM     19  H   THR A   9      10.247  32.998  21.121  0.00  0.00    +0.150 HD
ATOM     20  O   ASP A   8      12.963  32.057  19.782  0.00  0.00    -0.273 OA
BRANCH  18  21
ATOM     21  CA  THR A   9      10.267  31.309  19.783  0.00  0.00    +0.176 C 
BRANCH  21  22
ATOM     22  C   THR A   9       9.779  31.818  18.426  0.00  0.00    +0.243 C 
ATOM     23  O   THR A   9       9.095  32.841  18.354  0.00  0.00    -0.273 OA
ATOM     24  N   VAL A  10      10.147  31.101  17.363  0.00  0.00    -0.298 N 
ATOM     25  H   VAL A  10      10.676  30.219  17.516  0.00  0.00    +0.150 HD
BRANCH  24  26
ATOM     26  CA  VAL A  10       9.838  31.503  15.996  0.00  0.00    +0.137 C 
BRANCH  26  27
ATOM     27  CB  VAL A  10      11.103  31.903  15.199  0.00  0.00    +0.026 C 
ATOM     28  CG2 VAL A  10      12.046  32.771  16.037  0.00  0.00    +0.002 C 
ATOM     29  CG1 VAL A  10      10.713  32.630  13.915  0.00  0.00    +0.002 C 
ENDBRANCH  26  27
BRANCH  26  30
ATOM     30  C   VAL A  10       9.149  30.335  15.298  0.00  0.00    +0.227 C 
ATOM     31  O   VAL A  10       9.713  29.240  15.184  0.00  0.00    -0.286 OA
ENDBRANCH  26  30
ENDBRANCH  24  26
ENDBRANCH  21  22
BRANCH  21  32
ATOM     32  CB  THR A   9       9.107  30.698  20.618  0.00  0.00    +0.137 C 
ATOM     33  CG2 THR A   9       8.297  29.686  19.833  0.00  0.00    +0.034 C 
BRANCH  32  34
ATOM     34  OG1 THR A   9       9.670  30.050  21.760  0.00  0.00    -0.382 OA
ATOM     35  HG1 THR A   9      10.167  30.713  22.302  0.00  0.00    +0.210 HD
ENDBRANCH  32  34
ENDBRANCH  21  32
ENDBRANCH  18  21
ENDBRANCH  16  17
BRANCH  16  36
ATOM     36  CB  ASP A   8      12.141  35.206  20.501  0.00  0.00    +0.143 C 
BRANCH  36  37
ATOM     37  CG  ASP A   8      12.395  36.492  21.287  0.00  0.00    +0.367 C 
ATOM     38  OD2 ASP A   8      12.603  36.436  22.508  0.00  0.00    -0.246 OA
ATOM     39  OD1 ASP A   8      12.379  37.575  20.669  0.00  0.00    -0.246 OA
ENDBRANCH  36  37
ENDBRANCH  16  36
ENDBRANCH  14  16
ENDBRANCH  11  12
BRANCH  11  40
ATOM     40  CB  ASP A   7      16.373  35.623  22.439  0.00  0.00    +0.143 C 
BRANCH  40  41
ATOM     41  CG  ASP A   7      17.826  36.000  22.487  0.00  0.00    +0.367 C 
ATOM     42  OD2 ASP A   7      18.657  35.241  23.027  0.00  0.00    -0.246 OA
ATOM     43  OD1 ASP A   7      18.125  37.108  22.005  0.00  0.00    -0.246 OA
ENDBRANCH  40  41
ENDBRANCH  11  40
ENDBRANCH   9  11
ENDBRANCH   5   7
ENDBRANCH   2   5
BRANCH   1  44
ATOM     44  CA  GLY A   5      20.614  29.661  20.721  0.00  0.00    +0.176 C 
BRANCH  44  47
ATOM     45  C   THR A   4      19.844  28.470  22.712  0.00  0.00    +0.243 C 
ATOM     46  O   THR A   4      20.146  29.413  23.447  0.00  0.00    -0.273 OA
ATOM     47  N   GLY A   5      20.059  28.486  21.397  0.00  0.00    -0.295 N 
ATOM     48  H   GLY A   5      19.827  27.642  20.836  0.00  0.00    +0.150 HD
BRANCH  45  49
ATOM     49  CA  THR A   4      19.179  27.216  23.300  0.00  0.00    +0.176 C 
BRANCH  49  51
ATOM     50  C   ASP A   3      17.461  26.770  21.632  0.00  0.00    +0.241 C 
ATOM     51  N   THR A   4      18.540  26.372  22.293  0.00  0.00    -0.295 N 
ATOM     52  H   THR A   4      18.942  25.435  22.089  0.00  0.00    +0.150 HD
ATOM     53  O   ASP A   3      16.933  27.873  21.820  0.00  0.00    -0.273 OA
BRANCH  50  54
ATOM     54  CA  ASP A   3      16.943  25.794  20.572  0.00  0.00    +0.160 C 
BRANCH  54  56
ATOM     55  C   LEU A   2      15.877  23.652  21.030  0.00  0.00    +0.241 C 
ATOM     56  N   ASP A   3      15.821  24.982  21.025  0.00  0.00    -0.297 N 
ATOM     57  H   ASP A   3      14.954  25.454  21.353  0.00  0.00    +0.150 HD
ATOM     58  O   LEU A   2      16.929  23.013  20.894  0.00  0.00    -0.273 OA
BRANCH  55  59
ATOM     59  CA  LEU A   2      14.545  22.927  21.177  0.00  0.00    +0.149 C 
BRANCH  59  61
ATOM     60  C   LEU A   1      13.730  23.117  18.906  0.00  0.00    +0.238 C 
ATOM     61  N   LEU A   2      14.242  22.360  19.868  0.00  0.00    -0.297 N 
ATOM     62  H   LEU A   2      14.429  21.353  19.687  0.00  0.00    +0.150 HD
ATOM     63  O   LEU A   1      13.300  24.243  19.104  0.00  0.00    -0.274 OA
BRANCH  60  64
ATOM     64  CA  LEU A   1      13.755  22.553  17.498  0.00  0.00    +0.145 C 
BRANCH  64  65
ATOM     65  N   LEU A   1      12.453  22.670  16.863  0.00  0.00    -0.238 NA
ATOM     66  H   LEU A   1      12.293  23.460  16.206  0.00  0.00    +0.142 HD
ENDBRANCH  64  65
BRANCH  64  67
ATOM     67  CB  LEU A   1      14.800  23.376  16.743  0.00  0.00    +0.026 C 
BRANCH  67  68
ATOM     68  CG  LEU A   1      15.356  22.906  15.419  0.00  0.00    +0.002 C 
ATOM     69  CD2 LEU A   1      16.180  21.647  15.614  0.00  0.00    +0.000 C 
ATOM     70  CD1 LEU A   1      16.194  24.013  14.808  0.00  0.00    +0.000 C 
ENDBRANCH  67  68
ENDBRANCH  64  67
ENDBRANCH  60  64
ENDBRANCH  59  61
BRANCH  59  71
ATOM     71  CB  LEU A   2      14.627  21.848  22.239  0.00  0.00    +0.029 C 
BRANCH  71  72
ATOM     72  CG  LEU A   2      13.371  21.005  22.442  0.00  0.00    +0.002 C 
ATOM     73  CD2 LEU A   2      13.665  19.928  23.461  0.00  0.00    +0.000 C 
ATOM     74  CD1 LEU A   2      12.160  21.850  22.863  0.00  0.00    +0.000 C 
ENDBRANCH  71  72
ENDBRANCH  59  71
ENDBRANCH  55  59
ENDBRANCH  54  56
BRANCH  54  75
ATOM     75  CB  ASP A   3      16.557  26.545  19.289  0.00  0.00    +0.143 C 
BRANCH  75  76
ATOM     76  CG  ASP A   3      17.744  27.168  18.595  0.00  0.00    +0.367 C 
ATOM     77  OD2 ASP A   3      18.860  27.144  19.171  0.00  0.00    -0.246 OA
ATOM     78  OD1 ASP A   3      17.567  27.672  17.460  0.00  0.00    -0.246 OA
ENDBRANCH  75  76
ENDBRANCH  54  75
ENDBRANCH  50  54
ENDBRANCH  49  51
BRANCH  49  79
ATOM     79  CB  THR A   4      20.233  26.430  24.084  0.00  0.00    +0.137 C 
ATOM     80  CG2 THR A   4      19.592  25.230  24.761  0.00  0.00    +0.034 C 
BRANCH  79  81
ATOM     81  OG1 THR A   4      21.277  26.004  23.195  0.00  0.00    -0.382 OA
ATOM     82  HG1 THR A   4      21.699  26.797  22.780  0.00  0.00    +0.210 HD
ENDBRANCH  79  81
ENDBRANCH  49  79
ENDBRANCH  45  49
ENDBRANCH  44  47
ENDBRANCH   1  44
TORSDOF 35
REMARK  Name = ../refined-set-2016/2i0a/2i0a_pocket.pdb
REMARK  210 active torsions:
REMARK  status: ('A' for Active; 'I' for Inactive)
REMARK    1  A    between atoms: _1  and  _3
REMARK    2  A    between atoms: _3  and  _4
REMARK    3  A    between atoms: _3  and  _6
REMARK    4  A    between atoms: _6  and  _7
REMARK    5  A    between atoms: _7  and  _8
REMARK    6  A    between atoms: _8  and  _9
REMARK    7  A    between atoms: _18  and  _20
REMARK    8  A    between atoms: _20  and  _21
REMARK    9  A    between atoms: _20  and  _23
REMARK   10  A    between atoms: _23  and  _24
REMARK   11  A    between atoms: _27  and  _29
REMARK   12  A    between atoms: _29  and  _30
REMARK   13  A    between atoms: _29  and  _32
REMARK   14  A    between atoms: _32  and  _33
REMARK   15  A    between atoms: _36  and  _38
REMARK   16  A    between atoms: _38  and  _39
REMARK   17  A    between atoms: _38  and  _41
REMARK   18  A    between atoms: _41  and  _42
REMARK   19  A    between atoms: _45  and  _47
REMARK   20  A    between atoms: _47  and  _48
REMARK   21  A    between atoms: _47  and  _50
REMARK   22  A    between atoms: _50  and  _51
REMARK   23  A    between atoms: _54  and  _56
REMARK   24  A    between atoms: _56  and  _57
REMARK   25  A    between atoms: _59  and  _61
REMARK   26  A    between atoms: _61  and  _62
REMARK   27  A    between atoms: _65  and  _67
REMARK   28  A    between atoms: _67  and  _68
REMARK   29  A    between atoms: _67  and  _70
REMARK   30  A    between atoms: _70  and  _71
REMARK   31  A    between atoms: _74  and  _76
REMARK   32  A    between atoms: _76  and  _77
REMARK   33  A    between atoms: _76  and  _79
REMARK   34  A    between atoms: _79  and  _80
REMARK   35  A    between atoms: _83  and  _85
REMARK   36  A    between atoms: _85  and  _86
REMARK   37  A    between atoms: _85  and  _88
REMARK   38  A    between atoms: _88  and  _89
REMARK   39  A    between atoms: _92  and  _94
REMARK   40  A    between atoms: _94  and  _95
REMARK   41  A    between atoms: _94  and  _97
REMARK   42  A    between atoms: _100  and  _102
REMARK   43  A    between atoms: _102  and  _103
REMARK   44  A    between atoms: _102  and  _105
REMARK   45  A    between atoms: _105  and  _106
REMARK   46  A    between atoms: _106  and  _107
REMARK   47  A    between atoms: _109  and  _111
REMARK   48  A    between atoms: _111  and  _112
REMARK   49  A    between atoms: _111  and  _114
REMARK   50  A    between atoms: _114  and  _115
REMARK   51  A    between atoms: _118  and  _120
REMARK   52  A    between atoms: _120  and  _121
REMARK   53  A    between atoms: _123  and  _125
REMARK   54  A    between atoms: _125  and  _126
REMARK   55  A    between atoms: _128  and  _130
REMARK   56  A    between atoms: _130  and  _131
REMARK   57  A    between atoms: _130  and  _133
REMARK   58  A    between atoms: _133  and  _134
REMARK   59  A    between atoms: _137  and  _139
REMARK   60  A    between atoms: _139  and  _140
REMARK   61  A    between atoms: _142  and  _144
REMARK   62  A    between atoms: _144  and  _145
REMARK   63  A    between atoms: _147  and  _149
REMARK   64  A    between atoms: _149  and  _150
REMARK   65  A    between atoms: _149  and  _152
REMARK   66  A    between atoms: _152  and  _153
REMARK   67  A    between atoms: _159  and  _161
REMARK   68  A    between atoms: _161  and  _162
REMARK   69  A    between atoms: _161  and  _164
REMARK   70  A    between atoms: _164  and  _165
REMARK   71  A    between atoms: _169  and  _170
REMARK   72  A    between atoms: _175  and  _177
REMARK   73  A    between atoms: _177  and  _178
REMARK   74  A    between atoms: _177  and  _180
REMARK   75  A    between atoms: _183  and  _185
REMARK   76  A    between atoms: _185  and  _186
REMARK   77  A    between atoms: _185  and  _188
REMARK   78  A    between atoms: _188  and  _189
REMARK   79  A    between atoms: _194  and  _196
REMARK   80  A    between atoms: _196  and  _197
REMARK   81  A    between atoms: _196  and  _199
REMARK   82  A    between atoms: _199  and  _200
REMARK   83  A    between atoms: _203  and  _205
REMARK   84  A    between atoms: _205  and  _206
REMARK   85  A    between atoms: _205  and  _208
REMARK   86  A    between atoms: _208  and  _209
REMARK   87  A    between atoms: _212  and  _214
REMARK   88  A    between atoms: _214  and  _215
REMARK   89  A    between atoms: _217  and  _219
REMARK   90  A    between atoms: _219  and  _220
REMARK   91  A    between atoms: _219  and  _222
REMARK   92  A    between atoms: _222  and  _223
REMARK   93  A    between atoms: _223  and  _224
REMARK   94  A    between atoms: _224  and  _225
REMARK   95  A    between atoms: _234  and  _236
REMARK   96  A    between atoms: _236  and  _237
REMARK   97  A    between atoms: _236  and  _239
REMARK   98  A    between atoms: _239  and  _240
REMARK   99  A    between atoms: _240  and  _241
REMARK  100  A    between atoms: _241  and  _242
REMARK  101  A    between atoms: _251  and  _253
REMARK  102  A    between atoms: _253  and  _254
REMARK  103  A    between atoms: _253  and  _256
REMARK  104  A    between atoms: _256  and  _257
REMARK  105  A    between atoms: _260  and  _262
REMARK  106  A    between atoms: _262  and  _263
REMARK  107  A    between atoms: _262  and  _265
REMARK  108  A    between atoms: _265  and  _266
REMARK  109  A    between atoms: _269  and  _271
REMARK  110  A    between atoms: _271  and  _272
REMARK  111  A    between atoms: _271  and  _274
REMARK  112  A    between atoms: _274  and  _275
REMARK  113  A    between atoms: _278  and  _280
REMARK  114  A    between atoms: _280  and  _281
REMARK  115  A    between atoms: _280  and  _283
REMARK  116  A    between atoms: _283  and  _284
REMARK  117  A    between atoms: _287  and  _289
REMARK  118  A    between atoms: _289  and  _290
REMARK  119  A    between atoms: _292  and  _294
REMARK  120  A    between atoms: _294  and  _295
REMARK  121  A    between atoms: _298  and  _300
REMARK  122  A    between atoms: _300  and  _301
REMARK  123  A    between atoms: _300  and  _303
REMARK  124  A    between atoms: _303  and  _304
REMARK  125  A    between atoms: _307  and  _309
REMARK  126  A    between atoms: _309  and  _310
REMARK  127  A    between atoms: _309  and  _312
REMARK  128  A    between atoms: _312  and  _313
REMARK  129  A    between atoms: _316  and  _318
REMARK  130  A    between atoms: _318  and  _319
REMARK  131  A    between atoms: _318  and  _321
REMARK  132  A    between atoms: _321  and  _322
REMARK  133  A    between atoms: _325  and  _327
REMARK  134  A    between atoms: _327  and  _328
REMARK  135  A    between atoms: _327  and  _330
REMARK  136  A    between atoms: _333  and  _335
REMARK  137  A    between atoms: _335  and  _336
REMARK  138  A    between atoms: _335  and  _338
REMARK  139  A    between atoms: _338  and  _339
REMARK  140  A    between atoms: _339  and  _340
REMARK  141  A    between atoms: _340  and  _341
REMARK  142  A    between atoms: _341  and  _342
REMARK  143  A    between atoms: _346  and  _348
REMARK  144  A    between atoms: _348  and  _349
REMARK  145  A    between atoms: _348  and  _351
REMARK  146  A    between atoms: _351  and  _352
REMARK  147  A    between atoms: _352  and  _353
REMARK  148  A    between atoms: _355  and  _357
REMARK  149  A    between atoms: _357  and  _358
REMARK  150  A    between atoms: _357  and  _360
REMARK  151  A    between atoms: _360  and  _361
REMARK  152  A    between atoms: _364  and  _366
REMARK  153  A    between atoms: _366  and  _367
REMARK  154  A    between atoms: _369  and  _371
REMARK  155  A    between atoms: _371  and  _372
REMARK  156  A    between atoms: _374  and  _376
REMARK  157  A    between atoms: _376  and  _377
REMARK  158  A    between atoms: _376  and  _379
REMARK  159  A    between atoms: _379  and  _380
REMARK  160  A    between atoms: _383  and  _385
REMARK  161  A    between atoms: _385  and  _386
REMARK  162  A    between atoms: _388  and  _390
REMARK  163  A    between atoms: _390  and  _391
REMARK  164  A    between atoms: _393  and  _395
REMARK  165  A    between atoms: _395  and  _396
REMARK  166  A    between atoms: _395  and  _398
REMARK  167  A    between atoms: _398  and  _399
REMARK  168  A    between atoms: _405  and  _407
REMARK  169  A    between atoms: _407  and  _408
REMARK  170  A    between atoms: _407  and  _410
REMARK  171  A    between atoms: _410  and  _411
REMARK  172  A    between atoms: _414  and  _416
REMARK  173  A    between atoms: _416  and  _417
REMARK  174  A    between atoms: _416  and  _419
REMARK  175  A    between atoms: _422  and  _424
REMARK  176  A    between atoms: _424  and  _425
REMARK  177  A    between atoms: _424  and  _427
REMARK  178  A    between atoms: _427  and  _428
REMARK  179  A    between atoms: _431  and  _433
REMARK  180  A    between atoms: _433  and  _434
REMARK  181  A    between atoms: _433  and  _436
REMARK  182  A    between atoms: _436  and  _437
REMARK  183  A    between atoms: _441  and  _442
REMARK  184  A    between atoms: _447  and  _449
REMARK  185  A    between atoms: _449  and  _450
REMARK  186  A    between atoms: _449  and  _452
REMARK  187  A    between atoms: _455  and  _457
REMARK  188  A    between atoms: _457  and  _458
REMARK  189  A    between atoms: _457  and  _460
REMARK  190  A    between atoms: _460  and  _461
REMARK  191  A    between atoms: _466  and  _468
REMARK  192  A    between atoms: _468  and  _469
REMARK  193  A    between atoms: _468  and  _471
REMARK  194  A    between atoms: _471  and  _472
REMARK  195  A    between atoms: _475  and  _477
REMARK  196  A    between atoms: _477  and  _478
REMARK  197  A    between atoms: _477  and  _480
REMARK  198  A    between atoms: _480  and  _481
REMARK  199  A    between atoms: _484  and  _486
REMARK  200  A    between atoms: _486  and  _487
REMARK  201  A    between atoms: _489  and  _491
REMARK  202  A    between atoms: _491  and  _492
REMARK  203  A    between atoms: _491  and  _494
REMARK  204  A    between atoms: _494  and  _495
REMARK  205  A    between atoms: _495  and  _496
REMARK  206  A    between atoms: _496  and  _497
REMARK  207  A    between atoms: _506  and  _508
REMARK  208  A    between atoms: _508  and  _509
REMARK  209  A    between atoms: _508  and  _511
REMARK  210  A    between atoms: _511  and  _512
REMARK                            x       y       z     vdW  Elec       q    Type
REMARK                         _______ _______ _______ _____ _____    ______ ____
ROOT
ATOM      1  C   GLY A   5      21.479  35.314  11.176  0.00  0.00    +0.243 C 
ATOM      2  N   ILE A   6      21.976  34.102  10.962  0.00  0.00    -0.297 N 
ATOM      3  H   ILE A   6      21.744  33.334  11.624  0.00  0.00    +0.150 HD
ATOM      4  O   GLY A   5      21.782  36.300  10.501  0.00  0.00    -0.273 OA
ENDROOT
BRANCH   2   5
ATOM      5  CA  ILE A   6      22.835  33.824   9.827  0.00  0.00    +0.149 C 
BRANCH   5   6
ATOM      6  C   ILE A   6      22.059  34.137   8.547  0.00  0.00    +0.241 C 
ATOM      7  O   ILE A   6      20.944  33.656   8.360  0.00  0.00    -0.273 OA
ATOM      8  N   GLY A   7      22.645  34.984   7.700  0.00  0.00    -0.295 N 
ATOM      9  H   GLY A   7      23.568  35.390   7.954  0.00  0.00    +0.150 HD
BRANCH   8  10
ATOM     10  CA  GLY A   7      22.035  35.361   6.430  0.00  0.00    +0.176 C 
BRANCH  10  11
ATOM     11  C   GLY A   7      21.286  36.681   6.458  0.00  0.00    +0.243 C 
ATOM     12  N   GLY A   8      20.964  37.175   7.650  0.00  0.00    -0.295 N 
ATOM     13  H   GLY A   8      21.212  36.631   8.501  0.00  0.00    +0.150 HD
ATOM     14  O   GLY A   7      20.998  37.240   5.406  0.00  0.00    -0.273 OA
BRANCH  12  15
ATOM     15  CA  GLY A   8      20.279  38.446   7.806  0.00  0.00    +0.176 C 
BRANCH  15  16
ATOM     16  C   GLY A   8      18.967  38.333   8.558  0.00  0.00    +0.243 C 
ATOM     17  O   GLY A   8      18.788  37.448   9.391  0.00  0.00    -0.273 OA
ATOM     18  N   PHE A   9      18.048  39.245   8.256  0.00  0.00    -0.297 N 
ATOM     19  H   PHE A   9      18.204  39.869   7.439  0.00  0.00    +0.150 HD
BRANCH  18  20
ATOM     20  CA  PHE A   9      16.828  39.394   9.040  0.00  0.00    +0.153 C 
BRANCH  20  21
ATOM     21  C   PHE A   9      15.616  38.874   8.292  0.00  0.00    +0.241 C 
ATOM     22  N   ILE A  10      14.612  38.449   9.057  0.00  0.00    -0.298 N 
ATOM     23  H   ILE A  10      14.786  38.297  10.071  0.00  0.00    +0.150 HD
ATOM     24  O   PHE A   9      15.603  38.839   7.056  0.00  0.00    -0.273 OA
BRANCH  22  25
ATOM     25  CA  ILE A  10      13.279  38.189   8.527  0.00  0.00    +0.137 C 
BRANCH  25  26
ATOM     26  C   ILE A  10      12.242  38.989   9.304  0.00  0.00    +0.227 C 
ATOM     27  O   ILE A  10      12.460  39.337  10.475  0.00  0.00    -0.286 OA
ENDBRANCH  25  26
BRANCH  25  28
ATOM     28  CB  ILE A  10      12.910  36.687   8.534  0.00  0.00    +0.026 C 
ATOM     29  CG2 ILE A  10      13.874  35.923   7.641  0.00  0.00    +0.002 C 
BRANCH  28  30
ATOM     30  CG1 ILE A  10      12.891  36.106   9.952  0.00  0.00    +0.002 C 
ATOM     31  CD1 ILE A  10      12.175  34.760  10.040  0.00  0.00    +0.000 C 
ENDBRANCH  28  30
ENDBRANCH  25  28
ENDBRANCH  22  25
ENDBRANCH  20  21
BRANCH  20  32
ATOM     32  CB  PHE A   9      16.621  40.867   9.420  0.00  0.00    +0.055 C 
BRANCH  32  33
ATOM     33  CG  PHE A   9      17.491  41.323  10.555  0.00  0.00    -0.020 A 
ATOM     34  CD2 PHE A   9      16.966  41.508  11.821  0.00  0.00    -0.004 A 
ATOM     35  CE2 PHE A   9      17.778  41.918  12.865  0.00  0.00    -0.000 A 
ATOM     36  CZ  PHE A   9      19.123  42.138  12.654  0.00  0.00    -0.000 A 
ATOM     37  CE1 PHE A   9      19.660  41.956  11.410  0.00  0.00    -0.000 A 
ATOM     38  CD1 PHE A   9      18.850  41.541  10.364  0.00  0.00    -0.004 A 
ENDBRANCH  32  33
ENDBRANCH  20  32
ENDBRANCH  18  20
ENDBRANCH  15  16
ENDBRANCH  12  15
ENDBRANCH  10  11
ENDBRANCH   8  10
ENDBRANCH   5   6
BRANCH   5  39
ATOM     39  CB  ILE A   6      23.332  32.355   9.842  0.00  0.00    +0.027 C 
ATOM     40  CG2 ILE A   6      23.941  31.953   8.485  0.00  0.00    +0.002 C 
BRANCH  39  41
ATOM     41  CG1 ILE A   6      24.346  32.155  10.978  0.00  0.00    +0.002 C 
ATOM     42  CD1 ILE A   6      24.634  30.723  11.297  0.00  0.00    +0.000 C 
ENDBRANCH  39  41
ENDBRANCH   5  39
ENDBRANCH   2   5
BRANCH   1  43
ATOM     43  CA  GLY A   5      20.494  35.424  12.317  0.00  0.00    +0.176 C 
BRANCH  43  46
ATOM     44  C   GLY A   4      19.005  37.172  13.102  0.00  0.00    +0.243 C 
ATOM     45  O   GLY A   4      19.101  36.833  14.288  0.00  0.00    -0.273 OA
ATOM     46  N   GLY A   5      19.593  36.534  12.104  0.00  0.00    -0.295 N 
ATOM     47  H   GLY A   5      19.400  36.842  11.130  0.00  0.00    +0.150 HD
BRANCH  44  48
ATOM     48  CA  GLY A   4      18.222  38.390  12.685  0.00  0.00    +0.176 C 
BRANCH  48  50
ATOM     49  C   ILE A   3      15.838  38.722  12.957  0.00  0.00    +0.241 C 
ATOM     50  N   GLY A   4      17.050  38.630  13.491  0.00  0.00    -0.295 N 
ATOM     51  H   GLY A   4      17.158  38.734  14.520  0.00  0.00    +0.150 HD
ATOM     52  O   ILE A   3      15.590  38.504  11.771  0.00  0.00    -0.273 OA
BRANCH  49  53
ATOM     53  CA  ILE A   3      14.752  39.175  13.905  0.00  0.00    +0.149 C 
BRANCH  53  56
ATOM     54  C   MET A   2      13.381  41.155  13.604  0.00  0.00    +0.241 C 
ATOM     55  O   MET A   2      13.738  41.614  14.694  0.00  0.00    -0.273 OA
ATOM     56  N   ILE A   3      13.753  39.956  13.171  0.00  0.00    -0.297 N 
ATOM     57  H   ILE A   3      13.331  39.568  12.303  0.00  0.00    +0.150 HD
BRANCH  54  58
ATOM     58  CA  MET A   2      12.449  41.950  12.709  0.00  0.00    +0.149 C 
BRANCH  58  60
ATOM     59  C   LYS A   1      10.096  42.171  13.389  0.00  0.00    +0.238 C 
ATOM     60  N   MET A   2      11.382  42.493  13.536  0.00  0.00    -0.297 N 
ATOM     61  H   MET A   2      11.636  43.170  14.283  0.00  0.00    +0.150 HD
ATOM     62  O   LYS A   1       9.647  41.496  12.453  0.00  0.00    -0.274 OA
BRANCH  59  63
ATOM     63  CA  LYS A   1       9.164  42.712  14.460  0.00  0.00    +0.145 C 
BRANCH  63  64
ATOM     64  N   LYS A   1       7.823  42.793  13.907  0.00  0.00    -0.238 NA
ATOM     65  H   LYS A   1       7.555  42.129  13.153  0.00  0.00    +0.142 HD
ENDBRANCH  63  64
BRANCH  63  66
ATOM     66  CB  LYS A   1       9.157  41.773  15.666  0.00  0.00    +0.026 C 
BRANCH  66  67
ATOM     67  CG  LYS A   1      10.432  41.740  16.490  0.00  0.00    -0.000 C 
BRANCH  67  68
ATOM     68  CD  LYS A   1      10.250  40.774  17.665  0.00  0.00    -0.024 C 
BRANCH  68  69
ATOM     69  CE  LYS A   1      11.525  40.584  18.460  0.00  0.00    -0.086 C 
BRANCH  69  70
ATOM     70  NZ  LYS A   1      11.756  41.684  19.431  0.00  0.00    +0.380 N 
ATOM     71  HZ1 LYS A   1      10.962  41.725  20.101  0.00  0.00    -0.089 HD
ATOM     72  HZ2 LYS A   1      12.640  41.507  19.949  0.00  0.00    -0.089 HD
ATOM     73  HZ3 LYS A   1      11.827  42.587  18.920  0.00  0.00    -0.089 HD
ENDBRANCH  69  70
ENDBRANCH  68  69
ENDBRANCH  67  68
ENDBRANCH  66  67
ENDBRANCH  63  66
ENDBRANCH  59  63
ENDBRANCH  58  60
BRANCH  58  74
ATOM     74  CB  MET A   2      13.238  43.083  12.051  0.00  0.00    +0.041 C 
BRANCH  74  75
ATOM     75  CG  MET A   2      12.485  43.814  10.956  0.00  0.00    +0.060 C 
BRANCH  75  76
ATOM     76  SD  MET A   2      12.473  42.878   9.419  0.00  0.00    -0.139 S 
ATOM     77  CE  MET A   2      14.117  43.209   8.792  0.00  0.00    +0.069 C 
ENDBRANCH  75  76
ENDBRANCH  74  75
ENDBRANCH  58  74
ENDBRANCH  54  58
ENDBRANCH  53  56
BRANCH  53  78
ATOM     78  CB  ILE A   3      14.147  37.993  14.670  0.00  0.00    +0.027 C 
ATOM     79  CG2 ILE A   3      13.232  38.513  15.762  0.00  0.00    +0.002 C 
BRANCH  78  80
ATOM     80  CG1 ILE A   3      13.400  37.031  13.739  0.00  0.00    +0.002 C 
ATOM     81  CD1 ILE A   3      13.075  35.701  14.400  0.00  0.00    +0.000 C 
ENDBRANCH  78  80
ENDBRANCH  53  78
ENDBRANCH  49  53
ENDBRANCH  48  50
ENDBRANCH  44  48
ENDBRANCH  43  46
ENDBRANCH   1  43
TORSDOF 36
REMARK  Name = ../refined-set-2016/2i0a/2i0a_pocket.pdb
REMARK  210 active torsions:
REMARK  status: ('A' for Active; 'I' for Inactive)
REMARK    1  A    between atoms: _1  and  _3
REMARK    2  A    between atoms: _3  and  _4
REMARK    3  A    between atoms: _3  and  _6
REMARK    4  A    between atoms: _6  and  _7
REMARK    5  A    between atoms: _7  and  _8
REMARK    6  A    between atoms: _8  and  _9
REMARK    7  A    between atoms: _18  and  _20
REMARK    8  A    between atoms: _20  and  _21
REMARK    9  A    between atoms: _20  and  _23
REMARK   10  A    between atoms: _23  and  _24
REMARK   11  A    between atoms: _27  and  _29
REMARK   12  A    between atoms: _29  and  _30
REMARK   13  A    between atoms: _29  and  _32
REMARK   14  A    between atoms: _32  and  _33
REMARK   15  A    between atoms: _36  and  _38
REMARK   16  A    between atoms: _38  and  _39
REMARK   17  A    between atoms: _38  and  _41
REMARK   18  A    between atoms: _41  and  _42
REMARK   19  A    between atoms: _45  and  _47
REMARK   20  A    between atoms: _47  and  _48
REMARK   21  A    between atoms: _47  and  _50
REMARK   22  A    between atoms: _50  and  _51
REMARK   23  A    between atoms: _54  and  _56
REMARK   24  A    between atoms: _56  and  _57
REMARK   25  A    between atoms: _59  and  _61
REMARK   26  A    between atoms: _61  and  _62
REMARK   27  A    between atoms: _65  and  _67
REMARK   28  A    between atoms: _67  and  _68
REMARK   29  A    between atoms: _67  and  _70
REMARK   30  A    between atoms: _70  and  _71
REMARK   31  A    between atoms: _74  and  _76
REMARK   32  A    between atoms: _76  and  _77
REMARK   33  A    between atoms: _76  and  _79
REMARK   34  A    between atoms: _79  and  _80
REMARK   35  A    between atoms: _83  and  _85
REMARK   36  A    between atoms: _85  and  _86
REMARK   37  A    between atoms: _85  and  _88
REMARK   38  A    between atoms: _88  and  _89
REMARK   39  A    between atoms: _92  and  _94
REMARK   40  A    between atoms: _94  and  _95
REMARK   41  A    between atoms: _94  and  _97
REMARK   42  A    between atoms: _100  and  _102
REMARK   43  A    between atoms: _102  and  _103
REMARK   44  A    between atoms: _102  and  _105
REMARK   45  A    between atoms: _105  and  _106
REMARK   46  A    between atoms: _106  and  _107
REMARK   47  A    between atoms: _109  and  _111
REMARK   48  A    between atoms: _111  and  _112
REMARK   49  A    between atoms: _111  and  _114
REMARK   50  A    between atoms: _114  and  _115
REMARK   51  A    between atoms: _118  and  _120
REMARK   52  A    between atoms: _120  and  _121
REMARK   53  A    between atoms: _123  and  _125
REMARK   54  A    between atoms: _125  and  _126
REMARK   55  A    between atoms: _128  and  _130
REMARK   56  A    between atoms: _130  and  _131
REMARK   57  A    between atoms: _130  and  _133
REMARK   58  A    between atoms: _133  and  _134
REMARK   59  A    between atoms: _137  and  _139
REMARK   60  A    between atoms: _139  and  _140
REMARK   61  A    between atoms: _142  and  _144
REMARK   62  A    between atoms: _144  and  _145
REMARK   63  A    between atoms: _147  and  _149
REMARK   64  A    between atoms: _149  and  _150
REMARK   65  A    between atoms: _149  and  _152
REMARK   66  A    between atoms: _152  and  _153
REMARK   67  A    between atoms: _159  and  _161
REMARK   68  A    between atoms: _161  and  _162
REMARK   69  A    between atoms: _161  and  _164
REMARK   70  A    between atoms: _164  and  _165
REMARK   71  A    between atoms: _169  and  _170
REMARK   72  A    between atoms: _175  and  _177
REMARK   73  A    between atoms: _177  and  _178
REMARK   74  A    between atoms: _177  and  _180
REMARK   75  A    between atoms: _183  and  _185
REMARK   76  A    between atoms: _185  and  _186
REMARK   77  A    between atoms: _185  and  _188
REMARK   78  A    between atoms: _188  and  _189
REMARK   79  A    between atoms: _194  and  _196
REMARK   80  A    between atoms: _196  and  _197
REMARK   81  A    between atoms: _196  and  _199
REMARK   82  A    between atoms: _199  and  _200
REMARK   83  A    between atoms: _203  and  _205
REMARK   84  A    between atoms: _205  and  _206
REMARK   85  A    between atoms: _205  and  _208
REMARK   86  A    between atoms: _208  and  _209
REMARK   87  A    between atoms: _212  and  _214
REMARK   88  A    between atoms: _214  and  _215
REMARK   89  A    between atoms: _217  and  _219
REMARK   90  A    between atoms: _219  and  _220
REMARK   91  A    between atoms: _219  and  _222
REMARK   92  A    between atoms: _222  and  _223
REMARK   93  A    between atoms: _223  and  _224
REMARK   94  A    between atoms: _224  and  _225
REMARK   95  A    between atoms: _234  and  _236
REMARK   96  A    between atoms: _236  and  _237
REMARK   97  A    between atoms: _236  and  _239
REMARK   98  A    between atoms: _239  and  _240
REMARK   99  A    between atoms: _240  and  _241
REMARK  100  A    between atoms: _241  and  _242
REMARK  101  A    between atoms: _251  and  _253
REMARK  102  A    between atoms: _253  and  _254
REMARK  103  A    between atoms: _253  and  _256
REMARK  104  A    between atoms: _256  and  _257
REMARK  105  A    between atoms: _260  and  _262
REMARK  106  A    between atoms: _262  and  _263
REMARK  107  A    between atoms: _262  and  _265
REMARK  108  A    between atoms: _265  and  _266
REMARK  109  A    between atoms: _269  and  _271
REMARK  110  A    between atoms: _271  and  _272
REMARK  111  A    between atoms: _271  and  _274
REMARK  112  A    between atoms: _274  and  _275
REMARK  113  A    between atoms: _278  and  _280
REMARK  114  A    between atoms: _280  and  _281
REMARK  115  A    between atoms: _280  and  _283
REMARK  116  A    between atoms: _283  and  _284
REMARK  117  A    between atoms: _287  and  _289
REMARK  118  A    between atoms: _289  and  _290
REMARK  119  A    between atoms: _292  and  _294
REMARK  120  A    between atoms: _294  and  _295
REMARK  121  A    between atoms: _298  and  _300
REMARK  122  A    between atoms: _300  and  _301
REMARK  123  A    between atoms: _300  and  _303
REMARK  124  A    between atoms: _303  and  _304
REMARK  125  A    between atoms: _307  and  _309
REMARK  126  A    between atoms: _309  and  _310
REMARK  127  A    between atoms: _309  and  _312
REMARK  128  A    between atoms: _312  and  _313
REMARK  129  A    between atoms: _316  and  _318
REMARK  130  A    between atoms: _318  and  _319
REMARK  131  A    between atoms: _318  and  _321
REMARK  132  A    between atoms: _321  and  _322
REMARK  133  A    between atoms: _325  and  _327
REMARK  134  A    between atoms: _327  and  _328
REMARK  135  A    between atoms: _327  and  _330
REMARK  136  A    between atoms: _333  and  _335
REMARK  137  A    between atoms: _335  and  _336
REMARK  138  A    between atoms: _335  and  _338
REMARK  139  A    between atoms: _338  and  _339
REMARK  140  A    between atoms: _339  and  _340
REMARK  141  A    between atoms: _340  and  _341
REMARK  142  A    between atoms: _341  and  _342
REMARK  143  A    between atoms: _346  and  _348
REMARK  144  A    between atoms: _348  and  _349
REMARK  145  A    between atoms: _348  and  _351
REMARK  146  A    between atoms: _351  and  _352
REMARK  147  A    between atoms: _352  and  _353
REMARK  148  A    between atoms: _355  and  _357
REMARK  149  A    between atoms: _357  and  _358
REMARK  150  A    between atoms: _357  and  _360
REMARK  151  A    between atoms: _360  and  _361
REMARK  152  A    between atoms: _364  and  _366
REMARK  153  A    between atoms: _366  and  _367
REMARK  154  A    between atoms: _369  and  _371
REMARK  155  A    between atoms: _371  and  _372
REMARK  156  A    between atoms: _374  and  _376
REMARK  157  A    between atoms: _376  and  _377
REMARK  158  A    between atoms: _376  and  _379
REMARK  159  A    between atoms: _379  and  _380
REMARK  160  A    between atoms: _383  and  _385
REMARK  161  A    between atoms: _385  and  _386
REMARK  162  A    between atoms: _388  and  _390
REMARK  163  A    between atoms: _390  and  _391
REMARK  164  A    between atoms: _393  and  _395
REMARK  165  A    between atoms: _395  and  _396
REMARK  166  A    between atoms: _395  and  _398
REMARK  167  A    between atoms: _398  and  _399
REMARK  168  A    between atoms: _405  and  _407
REMARK  169  A    between atoms: _407  and  _408
REMARK  170  A    between atoms: _407  and  _410
REMARK  171  A    between atoms: _410  and  _411
REMARK  172  A    between atoms: _414  and  _416
REMARK  173  A    between atoms: _416  and  _417
REMARK  174  A    between atoms: _416  and  _419
REMARK  175  A    between atoms: _422  and  _424
REMARK  176  A    between atoms: _424  and  _425
REMARK  177  A    between atoms: _424  and  _427
REMARK  178  A    between atoms: _427  and  _428
REMARK  179  A    between atoms: _431  and  _433
REMARK  180  A    between atoms: _433  and  _434
REMARK  181  A    between atoms: _433  and  _436
REMARK  182  A    between atoms: _436  and  _437
REMARK  183  A    between atoms: _441  and  _442
REMARK  184  A    between atoms: _447  and  _449
REMARK  185  A    between atoms: _449  and  _450
REMARK  186  A    between atoms: _449  and  _452
REMARK  187  A    between atoms: _455  and  _457
REMARK  188  A    between atoms: _457  and  _458
REMARK  189  A    between atoms: _457  and  _460
REMARK  190  A    between atoms: _460  and  _461
REMARK  191  A    between atoms: _466  and  _468
REMARK  192  A    between atoms: _468  and  _469
REMARK  193  A    between atoms: _468  and  _471
REMARK  194  A    between atoms: _471  and  _472
REMARK  195  A    between atoms: _475  and  _477
REMARK  196  A    between atoms: _477  and  _478
REMARK  197  A    between atoms: _477  and  _480
REMARK  198  A    between atoms: _480  and  _481
REMARK  199  A    between atoms: _484  and  _486
REMARK  200  A    between atoms: _486  and  _487
REMARK  201  A    between atoms: _489  and  _491
REMARK  202  A    between atoms: _491  and  _492
REMARK  203  A    between atoms: _491  and  _494
REMARK  204  A    between atoms: _494  and  _495
REMARK  205  A    between atoms: _495  and  _496
REMARK  206  A    between atoms: _496  and  _497
REMARK  207  A    between atoms: _506  and  _508
REMARK  208  A    between atoms: _508  and  _509
REMARK  209  A    between atoms: _508  and  _511
REMARK  210  A    between atoms: _511  and  _512
REMARK                            x       y       z     vdW  Elec       q    Type
REMARK                         _______ _______ _______ _____ _____    ______ ____
ROOT
ATOM      1  CA  VAL A   1       7.785  38.285  11.849  0.00  0.00    +0.133 C 
ENDROOT
BRANCH   1   2
ATOM      2  CB  VAL A   1       8.539  37.427  12.875  0.00  0.00    +0.023 C 
ATOM      3  CG2 VAL A   1       9.173  38.290  13.970  0.00  0.00    +0.002 C 
ATOM      4  CG1 VAL A   1       9.601  36.590  12.174  0.00  0.00    +0.002 C 
ENDBRANCH   1   2
BRANCH   1   5
ATOM      5  N   VAL A   1       8.702  39.176  11.129  0.00  0.00    -0.239 NA
ATOM      6  H   VAL A   1       9.072  40.016  11.618  0.00  0.00    +0.142 HD
ENDBRANCH   1   5
BRANCH   1   7
ATOM      7  C   VAL A   1       6.652  39.058  12.529  0.00  0.00    +0.224 C 
ATOM      8  O   VAL A   1       6.702  40.291  12.647  0.00  0.00    -0.287 OA
ENDBRANCH   1   7
TORSDOF 3
REMARK  Name = ../refined-set-2016/2i0a/2i0a_pocket.pdb
REMARK  210 active torsions:
REMARK  status: ('A' for Active; 'I' for Inactive)
REMARK    1  A    between atoms: _1  and  _3
REMARK    2  A    between atoms: _3  and  _4
REMARK    3  A    between atoms: _3  and  _6
REMARK    4  A    between atoms: _6  and  _7
REMARK    5  A    between atoms: _7  and  _8
REMARK    6  A    between atoms: _8  and  _9
REMARK    7  A    between atoms: _18  and  _20
REMARK    8  A    between atoms: _20  and  _21
REMARK    9  A    between atoms: _20  and  _23
REMARK   10  A    between atoms: _23  and  _24
REMARK   11  A    between atoms: _27  and  _29
REMARK   12  A    between atoms: _29  and  _30
REMARK   13  A    between atoms: _29  and  _32
REMARK   14  A    between atoms: _32  and  _33
REMARK   15  A    between atoms: _36  and  _38
REMARK   16  A    between atoms: _38  and  _39
REMARK   17  A    between atoms: _38  and  _41
REMARK   18  A    between atoms: _41  and  _42
REMARK   19  A    between atoms: _45  and  _47
REMARK   20  A    between atoms: _47  and  _48
REMARK   21  A    between atoms: _47  and  _50
REMARK   22  A    between atoms: _50  and  _51
REMARK   23  A    between atoms: _54  and  _56
REMARK   24  A    between atoms: _56  and  _57
REMARK   25  A    between atoms: _59  and  _61
REMARK   26  A    between atoms: _61  and  _62
REMARK   27  A    between atoms: _65  and  _67
REMARK   28  A    between atoms: _67  and  _68
REMARK   29  A    between atoms: _67  and  _70
REMARK   30  A    between atoms: _70  and  _71
REMARK   31  A    between atoms: _74  and  _76
REMARK   32  A    between atoms: _76  and  _77
REMARK   33  A    between atoms: _76  and  _79
REMARK   34  A    between atoms: _79  and  _80
REMARK   35  A    between atoms: _83  and  _85
REMARK   36  A    between atoms: _85  and  _86
REMARK   37  A    between atoms: _85  and  _88
REMARK   38  A    between atoms: _88  and  _89
REMARK   39  A    between atoms: _92  and  _94
REMARK   40  A    between atoms: _94  and  _95
REMARK   41  A    between atoms: _94  and  _97
REMARK   42  A    between atoms: _100  and  _102
REMARK   43  A    between atoms: _102  and  _103
REMARK   44  A    between atoms: _102  and  _105
REMARK   45  A    between atoms: _105  and  _106
REMARK   46  A    between atoms: _106  and  _107
REMARK   47  A    between atoms: _109  and  _111
REMARK   48  A    between atoms: _111  and  _112
REMARK   49  A    between atoms: _111  and  _114
REMARK   50  A    between atoms: _114  and  _115
REMARK   51  A    between atoms: _118  and  _120
REMARK   52  A    between atoms: _120  and  _121
REMARK   53  A    between atoms: _123  and  _125
REMARK   54  A    between atoms: _125  and  _126
REMARK   55  A    between atoms: _128  and  _130
REMARK   56  A    between atoms: _130  and  _131
REMARK   57  A    between atoms: _130  and  _133
REMARK   58  A    between atoms: _133  and  _134
REMARK   59  A    between atoms: _137  and  _139
REMARK   60  A    between atoms: _139  and  _140
REMARK   61  A    between atoms: _142  and  _144
REMARK   62  A    between atoms: _144  and  _145
REMARK   63  A    between atoms: _147  and  _149
REMARK   64  A    between atoms: _149  and  _150
REMARK   65  A    between atoms: _149  and  _152
REMARK   66  A    between atoms: _152  and  _153
REMARK   67  A    between atoms: _159  and  _161
REMARK   68  A    between atoms: _161  and  _162
REMARK   69  A    between atoms: _161  and  _164
REMARK   70  A    between atoms: _164  and  _165
REMARK   71  A    between atoms: _169  and  _170
REMARK   72  A    between atoms: _175  and  _177
REMARK   73  A    between atoms: _177  and  _178
REMARK   74  A    between atoms: _177  and  _180
REMARK   75  A    between atoms: _183  and  _185
REMARK   76  A    between atoms: _185  and  _186
REMARK   77  A    between atoms: _185  and  _188
REMARK   78  A    between atoms: _188  and  _189
REMARK   79  A    between atoms: _194  and  _196
REMARK   80  A    between atoms: _196  and  _197
REMARK   81  A    between atoms: _196  and  _199
REMARK   82  A    between atoms: _199  and  _200
REMARK   83  A    between atoms: _203  and  _205
REMARK   84  A    between atoms: _205  and  _206
REMARK   85  A    between atoms: _205  and  _208
REMARK   86  A    between atoms: _208  and  _209
REMARK   87  A    between atoms: _212  and  _214
REMARK   88  A    between atoms: _214  and  _215
REMARK   89  A    between atoms: _217  and  _219
REMARK   90  A    between atoms: _219  and  _220
REMARK   91  A    between atoms: _219  and  _222
REMARK   92  A    between atoms: _222  and  _223
REMARK   93  A    between atoms: _223  and  _224
REMARK   94  A    between atoms: _224  and  _225
REMARK   95  A    between atoms: _234  and  _236
REMARK   96  A    between atoms: _236  and  _237
REMARK   97  A    between atoms: _236  and  _239
REMARK   98  A    between atoms: _239  and  _240
REMARK   99  A    between atoms: _240  and  _241
REMARK  100  A    between atoms: _241  and  _242
REMARK  101  A    between atoms: _251  and  _253
REMARK  102  A    between atoms: _253  and  _254
REMARK  103  A    between atoms: _253  and  _256
REMARK  104  A    between atoms: _256  and  _257
REMARK  105  A    between atoms: _260  and  _262
REMARK  106  A    between atoms: _262  and  _263
REMARK  107  A    between atoms: _262  and  _265
REMARK  108  A    between atoms: _265  and  _266
REMARK  109  A    between atoms: _269  and  _271
REMARK  110  A    between atoms: _271  and  _272
REMARK  111  A    between atoms: _271  and  _274
REMARK  112  A    between atoms: _274  and  _275
REMARK  113  A    between atoms: _278  and  _280
REMARK  114  A    between atoms: _280  and  _281
REMARK  115  A    between atoms: _280  and  _283
REMARK  116  A    between atoms: _283  and  _284
REMARK  117  A    between atoms: _287  and  _289
REMARK  118  A    between atoms: _289  and  _290
REMARK  119  A    between atoms: _292  and  _294
REMARK  120  A    between atoms: _294  and  _295
REMARK  121  A    between atoms: _298  and  _300
REMARK  122  A    between atoms: _300  and  _301
REMARK  123  A    between atoms: _300  and  _303
REMARK  124  A    between atoms: _303  and  _304
REMARK  125  A    between atoms: _307  and  _309
REMARK  126  A    between atoms: _309  and  _310
REMARK  127  A    between atoms: _309  and  _312
REMARK  128  A    between atoms: _312  and  _313
REMARK  129  A    between atoms: _316  and  _318
REMARK  130  A    between atoms: _318  and  _319
REMARK  131  A    between atoms: _318  and  _321
REMARK  132  A    between atoms: _321  and  _322
REMARK  133  A    between atoms: _325  and  _327
REMARK  134  A    between atoms: _327  and  _328
REMARK  135  A    between atoms: _327  and  _330
REMARK  136  A    between atoms: _333  and  _335
REMARK  137  A    between atoms: _335  and  _336
REMARK  138  A    between atoms: _335  and  _338
REMARK  139  A    between atoms: _338  and  _339
REMARK  140  A    between atoms: _339  and  _340
REMARK  141  A    between atoms: _340  and  _341
REMARK  142  A    between atoms: _341  and  _342
REMARK  143  A    between atoms: _346  and  _348
REMARK  144  A    between atoms: _348  and  _349
REMARK  145  A    between atoms: _348  and  _351
REMARK  146  A    between atoms: _351  and  _352
REMARK  147  A    between atoms: _352  and  _353
REMARK  148  A    between atoms: _355  and  _357
REMARK  149  A    between atoms: _357  and  _358
REMARK  150  A    between atoms: _357  and  _360
REMARK  151  A    between atoms: _360  and  _361
REMARK  152  A    between atoms: _364  and  _366
REMARK  153  A    between atoms: _366  and  _367
REMARK  154  A    between atoms: _369  and  _371
REMARK  155  A    between atoms: _371  and  _372
REMARK  156  A    between atoms: _374  and  _376
REMARK  157  A    between atoms: _376  and  _377
REMARK  158  A    between atoms: _376  and  _379
REMARK  159  A    between atoms: _379  and  _380
REMARK  160  A    between atoms: _383  and  _385
REMARK  161  A    between atoms: _385  and  _386
REMARK  162  A    between atoms: _388  and  _390
REMARK  163  A    between atoms: _390  and  _391
REMARK  164  A    between atoms: _393  and  _395
REMARK  165  A    between atoms: _395  and  _396
REMARK  166  A    between atoms: _395  and  _398
REMARK  167  A    between atoms: _398  and  _399
REMARK  168  A    between atoms: _405  and  _407
REMARK  169  A    between atoms: _407  and  _408
REMARK  170  A    between atoms: _407  and  _410
REMARK  171  A    between atoms: _410  and  _411
REMARK  172  A    between atoms: _414  and  _416
REMARK  173  A    between atoms: _416  and  _417
REMARK  174  A    between atoms: _416  and  _419
REMARK  175  A    between atoms: _422  and  _424
REMARK  176  A    between atoms: _424  and  _425
REMARK  177  A    between atoms: _424  and  _427
REMARK  178  A    between atoms: _427  and  _428
REMARK  179  A    between atoms: _431  and  _433
REMARK  180  A    between atoms: _433  and  _434
REMARK  181  A    between atoms: _433  and  _436
REMARK  182  A    between atoms: _436  and  _437
REMARK  183  A    between atoms: _441  and  _442
REMARK  184  A    between atoms: _447  and  _449
REMARK  185  A    between atoms: _449  and  _450
REMARK  186  A    between atoms: _449  and  _452
REMARK  187  A    between atoms: _455  and  _457
REMARK  188  A    between atoms: _457  and  _458
REMARK  189  A    between atoms: _457  and  _460
REMARK  190  A    between atoms: _460  and  _461
REMARK  191  A    between atoms: _466  and  _468
REMARK  192  A    between atoms: _468  and  _469
REMARK  193  A    between atoms: _468  and  _471
REMARK  194  A    between atoms: _471  and  _472
REMARK  195  A    between atoms: _475  and  _477
REMARK  196  A    between atoms: _477  and  _478
REMARK  197  A    between atoms: _477  and  _480
REMARK  198  A    between atoms: _480  and  _481
REMARK  199  A    between atoms: _484  and  _486
REMARK  200  A    between atoms: _486  and  _487
REMARK  201  A    between atoms: _489  and  _491
REMARK  202  A    between atoms: _491  and  _492
REMARK  203  A    between atoms: _491  and  _494
REMARK  204  A    between atoms: _494  and  _495
REMARK  205  A    between atoms: _495  and  _496
REMARK  206  A    between atoms: _496  and  _497
REMARK  207  A    between atoms: _506  and  _508
REMARK  208  A    between atoms: _508  and  _509
REMARK  209  A    between atoms: _508  and  _511
REMARK  210  A    between atoms: _511  and  _512
REMARK                            x       y       z     vdW  Elec       q    Type
REMARK                         _______ _______ _______ _____ _____    ______ ____
ROOT
ATOM      1  CA  LEU A   1       7.002  35.048  16.596  0.00  0.00    +0.133 C 
ENDROOT
BRANCH   1   2
ATOM      2  N   LEU A   1       6.757  34.241  17.776  0.00  0.00    -0.239 NA
ATOM      3  H   LEU A   1       7.460  33.523  18.043  0.00  0.00    +0.142 HD
ENDBRANCH   1   2
BRANCH   1   4
ATOM      4  C   LEU A   1       6.664  34.208  15.379  0.00  0.00    +0.224 C 
ATOM      5  O   LEU A   1       7.149  33.089  15.244  0.00  0.00    -0.287 OA
ENDBRANCH   1   4
BRANCH   1   6
ATOM      6  CB  LEU A   1       8.469  35.483  16.539  0.00  0.00    +0.025 C 
BRANCH   6   7
ATOM      7  CG  LEU A   1       9.005  36.190  17.788  0.00  0.00    +0.002 C 
ATOM      8  CD2 LEU A   1       8.174  37.428  18.115  0.00  0.00    +0.000 C 
ATOM      9  CD1 LEU A   1      10.456  36.564  17.583  0.00  0.00    +0.000 C 
ENDBRANCH   6   7
ENDBRANCH   1   6
TORSDOF 4
REMARK  Name = ../refined-set-2016/2i0a/2i0a_pocket.pdb
REMARK  210 active torsions:
REMARK  status: ('A' for Active; 'I' for Inactive)
REMARK    1  A    between atoms: _1  and  _3
REMARK    2  A    between atoms: _3  and  _4
REMARK    3  A    between atoms: _3  and  _6
REMARK    4  A    between atoms: _6  and  _7
REMARK    5  A    between atoms: _7  and  _8
REMARK    6  A    between atoms: _8  and  _9
REMARK    7  A    between atoms: _18  and  _20
REMARK    8  A    between atoms: _20  and  _21
REMARK    9  A    between atoms: _20  and  _23
REMARK   10  A    between atoms: _23  and  _24
REMARK   11  A    between atoms: _27  and  _29
REMARK   12  A    between atoms: _29  and  _30
REMARK   13  A    between atoms: _29  and  _32
REMARK   14  A    between atoms: _32  and  _33
REMARK   15  A    between atoms: _36  and  _38
REMARK   16  A    between atoms: _38  and  _39
REMARK   17  A    between atoms: _38  and  _41
REMARK   18  A    between atoms: _41  and  _42
REMARK   19  A    between atoms: _45  and  _47
REMARK   20  A    between atoms: _47  and  _48
REMARK   21  A    between atoms: _47  and  _50
REMARK   22  A    between atoms: _50  and  _51
REMARK   23  A    between atoms: _54  and  _56
REMARK   24  A    between atoms: _56  and  _57
REMARK   25  A    between atoms: _59  and  _61
REMARK   26  A    between atoms: _61  and  _62
REMARK   27  A    between atoms: _65  and  _67
REMARK   28  A    between atoms: _67  and  _68
REMARK   29  A    between atoms: _67  and  _70
REMARK   30  A    between atoms: _70  and  _71
REMARK   31  A    between atoms: _74  and  _76
REMARK   32  A    between atoms: _76  and  _77
REMARK   33  A    between atoms: _76  and  _79
REMARK   34  A    between atoms: _79  and  _80
REMARK   35  A    between atoms: _83  and  _85
REMARK   36  A    between atoms: _85  and  _86
REMARK   37  A    between atoms: _85  and  _88
REMARK   38  A    between atoms: _88  and  _89
REMARK   39  A    between atoms: _92  and  _94
REMARK   40  A    between atoms: _94  and  _95
REMARK   41  A    between atoms: _94  and  _97
REMARK   42  A    between atoms: _100  and  _102
REMARK   43  A    between atoms: _102  and  _103
REMARK   44  A    between atoms: _102  and  _105
REMARK   45  A    between atoms: _105  and  _106
REMARK   46  A    between atoms: _106  and  _107
REMARK   47  A    between atoms: _109  and  _111
REMARK   48  A    between atoms: _111  and  _112
REMARK   49  A    between atoms: _111  and  _114
REMARK   50  A    between atoms: _114  and  _115
REMARK   51  A    between atoms: _118  and  _120
REMARK   52  A    between atoms: _120  and  _121
REMARK   53  A    between atoms: _123  and  _125
REMARK   54  A    between atoms: _125  and  _126
REMARK   55  A    between atoms: _128  and  _130
REMARK   56  A    between atoms: _130  and  _131
REMARK   57  A    between atoms: _130  and  _133
REMARK   58  A    between atoms: _133  and  _134
REMARK   59  A    between atoms: _137  and  _139
REMARK   60  A    between atoms: _139  and  _140
REMARK   61  A    between atoms: _142  and  _144
REMARK   62  A    between atoms: _144  and  _145
REMARK   63  A    between atoms: _147  and  _149
REMARK   64  A    between atoms: _149  and  _150
REMARK   65  A    between atoms: _149  and  _152
REMARK   66  A    between atoms: _152  and  _153
REMARK   67  A    between atoms: _159  and  _161
REMARK   68  A    between atoms: _161  and  _162
REMARK   69  A    between atoms: _161  and  _164
REMARK   70  A    between atoms: _164  and  _165
REMARK   71  A    between atoms: _169  and  _170
REMARK   72  A    between atoms: _175  and  _177
REMARK   73  A    between atoms: _177  and  _178
REMARK   74  A    between atoms: _177  and  _180
REMARK   75  A    between atoms: _183  and  _185
REMARK   76  A    between atoms: _185  and  _186
REMARK   77  A    between atoms: _185  and  _188
REMARK   78  A    between atoms: _188  and  _189
REMARK   79  A    between atoms: _194  and  _196
REMARK   80  A    between atoms: _196  and  _197
REMARK   81  A    between atoms: _196  and  _199
REMARK   82  A    between atoms: _199  and  _200
REMARK   83  A    between atoms: _203  and  _205
REMARK   84  A    between atoms: _205  and  _206
REMARK   85  A    between atoms: _205  and  _208
REMARK   86  A    between atoms: _208  and  _209
REMARK   87  A    between atoms: _212  and  _214
REMARK   88  A    between atoms: _214  and  _215
REMARK   89  A    between atoms: _217  and  _219
REMARK   90  A    between atoms: _219  and  _220
REMARK   91  A    between atoms: _219  and  _222
REMARK   92  A    between atoms: _222  and  _223
REMARK   93  A    between atoms: _223  and  _224
REMARK   94  A    between atoms: _224  and  _225
REMARK   95  A    between atoms: _234  and  _236
REMARK   96  A    between atoms: _236  and  _237
REMARK   97  A    between atoms: _236  and  _239
REMARK   98  A    between atoms: _239  and  _240
REMARK   99  A    between atoms: _240  and  _241
REMARK  100  A    between atoms: _241  and  _242
REMARK  101  A    between atoms: _251  and  _253
REMARK  102  A    between atoms: _253  and  _254
REMARK  103  A    between atoms: _253  and  _256
REMARK  104  A    between atoms: _256  and  _257
REMARK  105  A    between atoms: _260  and  _262
REMARK  106  A    between atoms: _262  and  _263
REMARK  107  A    between atoms: _262  and  _265
REMARK  108  A    between atoms: _265  and  _266
REMARK  109  A    between atoms: _269  and  _271
REMARK  110  A    between atoms: _271  and  _272
REMARK  111  A    between atoms: _271  and  _274
REMARK  112  A    between atoms: _274  and  _275
REMARK  113  A    between atoms: _278  and  _280
REMARK  114  A    between atoms: _280  and  _281
REMARK  115  A    between atoms: _280  and  _283
REMARK  116  A    between atoms: _283  and  _284
REMARK  117  A    between atoms: _287  and  _289
REMARK  118  A    between atoms: _289  and  _290
REMARK  119  A    between atoms: _292  and  _294
REMARK  120  A    between atoms: _294  and  _295
REMARK  121  A    between atoms: _298  and  _300
REMARK  122  A    between atoms: _300  and  _301
REMARK  123  A    between atoms: _300  and  _303
REMARK  124  A    between atoms: _303  and  _304
REMARK  125  A    between atoms: _307  and  _309
REMARK  126  A    between atoms: _309  and  _310
REMARK  127  A    between atoms: _309  and  _312
REMARK  128  A    between atoms: _312  and  _313
REMARK  129  A    between atoms: _316  and  _318
REMARK  130  A    between atoms: _318  and  _319
REMARK  131  A    between atoms: _318  and  _321
REMARK  132  A    between atoms: _321  and  _322
REMARK  133  A    between atoms: _325  and  _327
REMARK  134  A    between atoms: _327  and  _328
REMARK  135  A    between atoms: _327  and  _330
REMARK  136  A    between atoms: _333  and  _335
REMARK  137  A    between atoms: _335  and  _336
REMARK  138  A    between atoms: _335  and  _338
REMARK  139  A    between atoms: _338  and  _339
REMARK  140  A    between atoms: _339  and  _340
REMARK  141  A    between atoms: _340  and  _341
REMARK  142  A    between atoms: _341  and  _342
REMARK  143  A    between atoms: _346  and  _348
REMARK  144  A    between atoms: _348  and  _349
REMARK  145  A    between atoms: _348  and  _351
REMARK  146  A    between atoms: _351  and  _352
REMARK  147  A    between atoms: _352  and  _353
REMARK  148  A    between atoms: _355  and  _357
REMARK  149  A    between atoms: _357  and  _358
REMARK  150  A    between atoms: _357  and  _360
REMARK  151  A    between atoms: _360  and  _361
REMARK  152  A    between atoms: _364  and  _366
REMARK  153  A    between atoms: _366  and  _367
REMARK  154  A    between atoms: _369  and  _371
REMARK  155  A    between atoms: _371  and  _372
REMARK  156  A    between atoms: _374  and  _376
REMARK  157  A    between atoms: _376  and  _377
REMARK  158  A    between atoms: _376  and  _379
REMARK  159  A    between atoms: _379  and  _380
REMARK  160  A    between atoms: _383  and  _385
REMARK  161  A    between atoms: _385  and  _386
REMARK  162  A    between atoms: _388  and  _390
REMARK  163  A    between atoms: _390  and  _391
REMARK  164  A    between atoms: _393  and  _395
REMARK  165  A    between atoms: _395  and  _396
REMARK  166  A    between atoms: _395  and  _398
REMARK  167  A    between atoms: _398  and  _399
REMARK  168  A    between atoms: _405  and  _407
REMARK  169  A    between atoms: _407  and  _408
REMARK  170  A    between atoms: _407  and  _410
REMARK  171  A    between atoms: _410  and  _411
REMARK  172  A    between atoms: _414  and  _416
REMARK  173  A    between atoms: _416  and  _417
REMARK  174  A    between atoms: _416  and  _419
REMARK  175  A    between atoms: _422  and  _424
REMARK  176  A    between atoms: _424  and  _425
REMARK  177  A    between atoms: _424  and  _427
REMARK  178  A    between atoms: _427  and  _428
REMARK  179  A    between atoms: _431  and  _433
REMARK  180  A    between atoms: _433  and  _434
REMARK  181  A    between atoms: _433  and  _436
REMARK  182  A    between atoms: _436  and  _437
REMARK  183  A    between atoms: _441  and  _442
REMARK  184  A    between atoms: _447  and  _449
REMARK  185  A    between atoms: _449  and  _450
REMARK  186  A    between atoms: _449  and  _452
REMARK  187  A    between atoms: _455  and  _457
REMARK  188  A    between atoms: _457  and  _458
REMARK  189  A    between atoms: _457  and  _460
REMARK  190  A    between atoms: _460  and  _461
REMARK  191  A    between atoms: _466  and  _468
REMARK  192  A    between atoms: _468  and  _469
REMARK  193  A    between atoms: _468  and  _471
REMARK  194  A    between atoms: _471  and  _472
REMARK  195  A    between atoms: _475  and  _477
REMARK  196  A    between atoms: _477  and  _478
REMARK  197  A    between atoms: _477  and  _480
REMARK  198  A    between atoms: _480  and  _481
REMARK  199  A    between atoms: _484  and  _486
REMARK  200  A    between atoms: _486  and  _487
REMARK  201  A    between atoms: _489  and  _491
REMARK  202  A    between atoms: _491  and  _492
REMARK  203  A    between atoms: _491  and  _494
REMARK  204  A    between atoms: _494  and  _495
REMARK  205  A    between atoms: _495  and  _496
REMARK  206  A    between atoms: _496  and  _497
REMARK  207  A    between atoms: _506  and  _508
REMARK  208  A    between atoms: _508  and  _509
REMARK  209  A    between atoms: _508  and  _511
REMARK  210  A    between atoms: _511  and  _512
REMARK                            x       y       z     vdW  Elec       q    Type
REMARK                         _______ _______ _______ _____ _____    ______ ____
ROOT
ATOM      1  C   ILE A   5      11.540  27.456  18.128  0.00  0.00    +0.241 C 
ATOM      2  N   ILE A   6      11.770  26.572  19.097  0.00  0.00    -0.297 N 
ATOM      3  H   ILE A   6      12.237  25.673  18.861  0.00  0.00    +0.150 HD
ATOM      4  O   ILE A   5      10.854  28.470  18.286  0.00  0.00    -0.273 OA
ENDROOT
BRANCH   2   5
ATOM      5  CA  ILE A   6      11.385  26.829  20.480  0.00  0.00    +0.149 C 
BRANCH   5   6
ATOM      6  C   ILE A   6      12.568  27.478  21.182  0.00  0.00    +0.241 C 
ATOM      7  N   GLY A   7      12.409  28.759  21.501  0.00  0.00    -0.295 N 
ATOM      8  H   GLY A   7      11.496  29.215  21.299  0.00  0.00    +0.150 HD
ATOM      9  O   ILE A   6      13.606  26.845  21.397  0.00  0.00    -0.273 OA
BRANCH   7  10
ATOM     10  CA  GLY A   7      13.462  29.548  22.122  0.00  0.00    +0.176 C 
BRANCH  10  11
ATOM     11  C   GLY A   7      13.409  29.557  23.629  0.00  0.00    +0.243 C 
ATOM     12  O   GLY A   7      12.525  28.955  24.235  0.00  0.00    -0.273 OA
ATOM     13  N   ARG A   8      14.367  30.256  24.231  0.00  0.00    -0.297 N 
ATOM     14  H   ARG A   8      15.010  30.832  23.651  0.00  0.00    +0.150 HD
BRANCH  13  15
ATOM     15  CA  ARG A   8      14.546  30.241  25.687  0.00  0.00    +0.149 C 
BRANCH  15  16
ATOM     16  C   ARG A   8      13.322  30.727  26.454  0.00  0.00    +0.241 C 
ATOM     17  O   ARG A   8      13.067  30.258  27.569  0.00  0.00    -0.273 OA
ATOM     18  N   ASN A   9      12.550  31.639  25.870  0.00  0.00    -0.298 N 
ATOM     19  H   ASN A   9      12.804  32.010  24.932  0.00  0.00    +0.150 HD
BRANCH  18  20
ATOM     20  CA  ASN A   9      11.342  32.123  26.546  0.00  0.00    +0.146 C 
BRANCH  20  21
ATOM     21  C   ASN A   9      10.381  30.997  26.948  0.00  0.00    +0.227 C 
ATOM     22  O   ASN A   9       9.691  31.129  27.948  0.00  0.00    -0.286 OA
ENDBRANCH  20  21
BRANCH  20  23
ATOM     23  CB  ASN A   9      10.613  33.191  25.722  0.00  0.00    +0.112 C 
BRANCH  23  24
ATOM     24  CG  ASN A   9       9.922  32.626  24.500  0.00  0.00    +0.222 C 
ATOM     25  ND2 ASN A   9       8.612  32.898  24.371  0.00  0.00    -0.329 N 
ATOM     26 HD21 ASN A   9       8.127  33.473  25.089  0.00  0.00    +0.145 HD
ATOM     27 HD22 ASN A   9       8.083  32.533  23.553  0.00  0.00    +0.145 HD
ATOM     28  OD1 ASN A   9      10.548  31.949  23.679  0.00  0.00    -0.275 OA
ENDBRANCH  23  24
ENDBRANCH  20  23
ENDBRANCH  18  20
ENDBRANCH  15  16
BRANCH  15  29
ATOM     29  CB  ARG A   8      15.784  31.048  26.090  0.00  0.00    +0.033 C 
BRANCH  29  30
ATOM     30  CG  ARG A   8      17.095  30.423  25.615  0.00  0.00    +0.045 C 
BRANCH  30  31
ATOM     31  CD  ARG A   8      18.327  31.184  26.127  0.00  0.00    +0.174 C 
BRANCH  31  32
ATOM     32  NE  ARG A   8      18.347  32.583  25.683  0.00  0.00    -0.265 N 
ATOM     33  CZ  ARG A   8      17.945  33.636  26.399  0.00  0.00    +0.342 C 
ATOM     34  NH2 ARG A   8      17.460  33.511  27.632  0.00  0.00    -0.292 N 
ATOM     35 HH21 ARG A   8      17.157  34.354  28.159  0.00  0.00    +0.255 HD
ATOM     36 HH22 ARG A   8      17.384  32.570  28.068  0.00  0.00    +0.255 HD
ATOM     37  NH1 ARG A   8      18.021  34.844  25.860  0.00  0.00    -0.292 N 
ATOM     38 HH11 ARG A   8      17.713  35.676  26.403  0.00  0.00    +0.255 HD
ATOM     39 HH12 ARG A   8      18.389  34.960  24.894  0.00  0.00    +0.255 HD
ATOM     40  HE  ARG A   8      18.706  32.771  24.725  0.00  0.00    +0.259 HD
ENDBRANCH  31  32
ENDBRANCH  30  31
ENDBRANCH  29  30
ENDBRANCH  15  29
ENDBRANCH  13  15
ENDBRANCH  10  11
ENDBRANCH   7  10
ENDBRANCH   5   6
BRANCH   5  41
ATOM     41  CB  ILE A   6      10.958  25.541  21.224  0.00  0.00    +0.027 C 
ATOM     42  CG2 ILE A   6      10.542  25.870  22.670  0.00  0.00    +0.002 C 
BRANCH  41  43
ATOM     43  CG1 ILE A   6       9.826  24.846  20.459  0.00  0.00    +0.002 C 
ATOM     44  CD1 ILE A   6       8.607  25.722  20.228  0.00  0.00    +0.000 C 
ENDBRANCH  41  43
ENDBRANCH   5  41
ENDBRANCH   2   5
BRANCH   1  45
ATOM     45  CA  ILE A   5      12.155  27.147  16.769  0.00  0.00    +0.149 C 
BRANCH  45  47
ATOM     46  C   ASN A   4      11.001  25.869  15.008  0.00  0.00    +0.241 C 
ATOM     47  N   ILE A   5      11.088  26.947  15.783  0.00  0.00    -0.297 N 
ATOM     48  H   ILE A   5      10.362  27.685  15.685  0.00  0.00    +0.150 HD
ATOM     49  O   ASN A   4      11.732  24.879  15.127  0.00  0.00    -0.273 OA
BRANCH  46  50
ATOM     50  CA  ASN A   4       9.932  25.924  13.914  0.00  0.00    +0.158 C 
BRANCH  50  52
ATOM     51  C   VAL A   3      11.383  26.257  12.004  0.00  0.00    +0.241 C 
ATOM     52  N   ASN A   4      10.548  25.470  12.677  0.00  0.00    -0.297 N 
ATOM     53  H   ASN A   4      10.333  24.519  12.315  0.00  0.00    +0.150 HD
ATOM     54  O   VAL A   3      11.575  27.443  12.305  0.00  0.00    -0.273 OA
BRANCH  51  55
ATOM     55  CA  VAL A   3      12.094  25.629  10.809  0.00  0.00    +0.149 C 
BRANCH  55  57
ATOM     56  C   PRO A   2      12.130  26.325   8.466  0.00  0.00    +0.241 C 
ATOM     57  N   VAL A   3      12.276  26.620   9.755  0.00  0.00    -0.297 N 
ATOM     58  H   VAL A   3      12.529  27.593  10.021  0.00  0.00    +0.150 HD
ATOM     59  O   PRO A   2      11.806  25.203   8.059  0.00  0.00    -0.273 OA
BRANCH  56  66
ATOM     60  C   THR A   1      11.256  29.358   8.417  0.00  0.00    +0.244 C 
ATOM     61  O   THR A   1      10.171  28.822   8.205  0.00  0.00    -0.273 OA
ATOM     62  N   PRO A   2      12.418  28.800   8.039  0.00  0.00    -0.272 N 
ATOM     63  CD  PRO A   2      13.772  29.384   8.071  0.00  0.00    +0.094 C 
ATOM     64  CG  PRO A   2      14.658  28.218   7.717  0.00  0.00    +0.024 C 
ATOM     65  CB  PRO A   2      13.830  27.306   6.896  0.00  0.00    +0.031 C 
ATOM     66  CA  PRO A   2      12.414  27.448   7.465  0.00  0.00    +0.152 C 
BRANCH  60  67
ATOM     67  CA  THR A   1      11.321  30.727   9.092  0.00  0.00    +0.172 C 
BRANCH  67  68
ATOM     68  N   THR A   1      10.195  31.511   8.636  0.00  0.00    -0.236 NA
ATOM     69  H   THR A   1       9.346  31.570   9.234  0.00  0.00    +0.142 HD
ENDBRANCH  67  68
BRANCH  67  70
ATOM     70  CB  THR A   1      11.345  30.581  10.640  0.00  0.00    +0.135 C 
ATOM     71  CG2 THR A   1      10.033  29.986  11.203  0.00  0.00    +0.034 C 
BRANCH  70  72
ATOM     72  OG1 THR A   1      12.437  29.742  11.017  0.00  0.00    -0.383 OA
ATOM     73  HG1 THR A   1      12.326  28.851  10.601  0.00  0.00    +0.210 HD
ENDBRANCH  70  72
ENDBRANCH  67  70
ENDBRANCH  60  67
ENDBRANCH  56  66
ENDBRANCH  55  57
BRANCH  55  74
ATOM     74  CB  VAL A   3      13.457  25.038  11.252  0.00  0.00    +0.027 C 
ATOM     75  CG2 VAL A   3      14.336  26.104  11.889  0.00  0.00    +0.002 C 
ATOM     76  CG1 VAL A   3      14.167  24.402  10.072  0.00  0.00    +0.002 C 
ENDBRANCH  55  74
ENDBRANCH  51  55
ENDBRANCH  50  52
BRANCH  50  77
ATOM     77  CB  ASN A   4       8.734  25.059  14.298  0.00  0.00    +0.114 C 
BRANCH  77  78
ATOM     78  CG  ASN A   4       7.593  25.142  13.295  0.00  0.00    +0.222 C 
ATOM     79  OD1 ASN A   4       7.105  26.227  12.982  0.00  0.00    -0.275 OA
ATOM     80  ND2 ASN A   4       7.146  23.990  12.811  0.00  0.00    -0.329 N 
ATOM     81 HD21 ASN A   4       7.589  23.096  13.104  0.00  0.00    +0.145 HD
ATOM     82 HD22 ASN A   4       6.352  23.981  12.139  0.00  0.00    +0.145 HD
ENDBRANCH  77  78
ENDBRANCH  50  77
ENDBRANCH  46  50
ENDBRANCH  45  47
BRANCH  45  83
ATOM     83  CB  ILE A   5      13.078  28.320  16.356  0.00  0.00    +0.027 C 
ATOM     84  CG2 ILE A   5      14.052  28.690  17.497  0.00  0.00    +0.002 C 
BRANCH  83  85
ATOM     85  CG1 ILE A   5      13.851  27.954  15.083  0.00  0.00    +0.002 C 
ATOM     86  CD1 ILE A   5      14.427  29.129  14.358  0.00  0.00    +0.000 C 
ENDBRANCH  83  85
ENDBRANCH  45  83
ENDBRANCH   1  45
TORSDOF 32
REMARK  Name = ../refined-set-2016/2i0a/2i0a_pocket.pdb
REMARK  210 active torsions:
REMARK  status: ('A' for Active; 'I' for Inactive)
REMARK    1  A    between atoms: _1  and  _3
REMARK    2  A    between atoms: _3  and  _4
REMARK    3  A    between atoms: _3  and  _6
REMARK    4  A    between atoms: _6  and  _7
REMARK    5  A    between atoms: _7  and  _8
REMARK    6  A    between atoms: _8  and  _9
REMARK    7  A    between atoms: _18  and  _20
REMARK    8  A    between atoms: _20  and  _21
REMARK    9  A    between atoms: _20  and  _23
REMARK   10  A    between atoms: _23  and  _24
REMARK   11  A    between atoms: _27  and  _29
REMARK   12  A    between atoms: _29  and  _30
REMARK   13  A    between atoms: _29  and  _32
REMARK   14  A    between atoms: _32  and  _33
REMARK   15  A    between atoms: _36  and  _38
REMARK   16  A    between atoms: _38  and  _39
REMARK   17  A    between atoms: _38  and  _41
REMARK   18  A    between atoms: _41  and  _42
REMARK   19  A    between atoms: _45  and  _47
REMARK   20  A    between atoms: _47  and  _48
REMARK   21  A    between atoms: _47  and  _50
REMARK   22  A    between atoms: _50  and  _51
REMARK   23  A    between atoms: _54  and  _56
REMARK   24  A    between atoms: _56  and  _57
REMARK   25  A    between atoms: _59  and  _61
REMARK   26  A    between atoms: _61  and  _62
REMARK   27  A    between atoms: _65  and  _67
REMARK   28  A    between atoms: _67  and  _68
REMARK   29  A    between atoms: _67  and  _70
REMARK   30  A    between atoms: _70  and  _71
REMARK   31  A    between atoms: _74  and  _76
REMARK   32  A    between atoms: _76  and  _77
REMARK   33  A    between atoms: _76  and  _79
REMARK   34  A    between atoms: _79  and  _80
REMARK   35  A    between atoms: _83  and  _85
REMARK   36  A    between atoms: _85  and  _86
REMARK   37  A    between atoms: _85  and  _88
REMARK   38  A    between atoms: _88  and  _89
REMARK   39  A    between atoms: _92  and  _94
REMARK   40  A    between atoms: _94  and  _95
REMARK   41  A    between atoms: _94  and  _97
REMARK   42  A    between atoms: _100  and  _102
REMARK   43  A    between atoms: _102  and  _103
REMARK   44  A    between atoms: _102  and  _105
REMARK   45  A    between atoms: _105  and  _106
REMARK   46  A    between atoms: _106  and  _107
REMARK   47  A    between atoms: _109  and  _111
REMARK   48  A    between atoms: _111  and  _112
REMARK   49  A    between atoms: _111  and  _114
REMARK   50  A    between atoms: _114  and  _115
REMARK   51  A    between atoms: _118  and  _120
REMARK   52  A    between atoms: _120  and  _121
REMARK   53  A    between atoms: _123  and  _125
REMARK   54  A    between atoms: _125  and  _126
REMARK   55  A    between atoms: _128  and  _130
REMARK   56  A    between atoms: _130  and  _131
REMARK   57  A    between atoms: _130  and  _133
REMARK   58  A    between atoms: _133  and  _134
REMARK   59  A    between atoms: _137  and  _139
REMARK   60  A    between atoms: _139  and  _140
REMARK   61  A    between atoms: _142  and  _144
REMARK   62  A    between atoms: _144  and  _145
REMARK   63  A    between atoms: _147  and  _149
REMARK   64  A    between atoms: _149  and  _150
REMARK   65  A    between atoms: _149  and  _152
REMARK   66  A    between atoms: _152  and  _153
REMARK   67  A    between atoms: _159  and  _161
REMARK   68  A    between atoms: _161  and  _162
REMARK   69  A    between atoms: _161  and  _164
REMARK   70  A    between atoms: _164  and  _165
REMARK   71  A    between atoms: _169  and  _170
REMARK   72  A    between atoms: _175  and  _177
REMARK   73  A    between atoms: _177  and  _178
REMARK   74  A    between atoms: _177  and  _180
REMARK   75  A    between atoms: _183  and  _185
REMARK   76  A    between atoms: _185  and  _186
REMARK   77  A    between atoms: _185  and  _188
REMARK   78  A    between atoms: _188  and  _189
REMARK   79  A    between atoms: _194  and  _196
REMARK   80  A    between atoms: _196  and  _197
REMARK   81  A    between atoms: _196  and  _199
REMARK   82  A    between atoms: _199  and  _200
REMARK   83  A    between atoms: _203  and  _205
REMARK   84  A    between atoms: _205  and  _206
REMARK   85  A    between atoms: _205  and  _208
REMARK   86  A    between atoms: _208  and  _209
REMARK   87  A    between atoms: _212  and  _214
REMARK   88  A    between atoms: _214  and  _215
REMARK   89  A    between atoms: _217  and  _219
REMARK   90  A    between atoms: _219  and  _220
REMARK   91  A    between atoms: _219  and  _222
REMARK   92  A    between atoms: _222  and  _223
REMARK   93  A    between atoms: _223  and  _224
REMARK   94  A    between atoms: _224  and  _225
REMARK   95  A    between atoms: _234  and  _236
REMARK   96  A    between atoms: _236  and  _237
REMARK   97  A    between atoms: _236  and  _239
REMARK   98  A    between atoms: _239  and  _240
REMARK   99  A    between atoms: _240  and  _241
REMARK  100  A    between atoms: _241  and  _242
REMARK  101  A    between atoms: _251  and  _253
REMARK  102  A    between atoms: _253  and  _254
REMARK  103  A    between atoms: _253  and  _256
REMARK  104  A    between atoms: _256  and  _257
REMARK  105  A    between atoms: _260  and  _262
REMARK  106  A    between atoms: _262  and  _263
REMARK  107  A    between atoms: _262  and  _265
REMARK  108  A    between atoms: _265  and  _266
REMARK  109  A    between atoms: _269  and  _271
REMARK  110  A    between atoms: _271  and  _272
REMARK  111  A    between atoms: _271  and  _274
REMARK  112  A    between atoms: _274  and  _275
REMARK  113  A    between atoms: _278  and  _280
REMARK  114  A    between atoms: _280  and  _281
REMARK  115  A    between atoms: _280  and  _283
REMARK  116  A    between atoms: _283  and  _284
REMARK  117  A    between atoms: _287  and  _289
REMARK  118  A    between atoms: _289  and  _290
REMARK  119  A    between atoms: _292  and  _294
REMARK  120  A    between atoms: _294  and  _295
REMARK  121  A    between atoms: _298  and  _300
REMARK  122  A    between atoms: _300  and  _301
REMARK  123  A    between atoms: _300  and  _303
REMARK  124  A    between atoms: _303  and  _304
REMARK  125  A    between atoms: _307  and  _309
REMARK  126  A    between atoms: _309  and  _310
REMARK  127  A    between atoms: _309  and  _312
REMARK  128  A    between atoms: _312  and  _313
REMARK  129  A    between atoms: _316  and  _318
REMARK  130  A    between atoms: _318  and  _319
REMARK  131  A    between atoms: _318  and  _321
REMARK  132  A    between atoms: _321  and  _322
REMARK  133  A    between atoms: _325  and  _327
REMARK  134  A    between atoms: _327  and  _328
REMARK  135  A    between atoms: _327  and  _330
REMARK  136  A    between atoms: _333  and  _335
REMARK  137  A    between atoms: _335  and  _336
REMARK  138  A    between atoms: _335  and  _338
REMARK  139  A    between atoms: _338  and  _339
REMARK  140  A    between atoms: _339  and  _340
REMARK  141  A    between atoms: _340  and  _341
REMARK  142  A    between atoms: _341  and  _342
REMARK  143  A    between atoms: _346  and  _348
REMARK  144  A    between atoms: _348  and  _349
REMARK  145  A    between atoms: _348  and  _351
REMARK  146  A    between atoms: _351  and  _352
REMARK  147  A    between atoms: _352  and  _353
REMARK  148  A    between atoms: _355  and  _357
REMARK  149  A    between atoms: _357  and  _358
REMARK  150  A    between atoms: _357  and  _360
REMARK  151  A    between atoms: _360  and  _361
REMARK  152  A    between atoms: _364  and  _366
REMARK  153  A    between atoms: _366  and  _367
REMARK  154  A    between atoms: _369  and  _371
REMARK  155  A    between atoms: _371  and  _372
REMARK  156  A    between atoms: _374  and  _376
REMARK  157  A    between atoms: _376  and  _377
REMARK  158  A    between atoms: _376  and  _379
REMARK  159  A    between atoms: _379  and  _380
REMARK  160  A    between atoms: _383  and  _385
REMARK  161  A    between atoms: _385  and  _386
REMARK  162  A    between atoms: _388  and  _390
REMARK  163  A    between atoms: _390  and  _391
REMARK  164  A    between atoms: _393  and  _395
REMARK  165  A    between atoms: _395  and  _396
REMARK  166  A    between atoms: _395  and  _398
REMARK  167  A    between atoms: _398  and  _399
REMARK  168  A    between atoms: _405  and  _407
REMARK  169  A    between atoms: _407  and  _408
REMARK  170  A    between atoms: _407  and  _410
REMARK  171  A    between atoms: _410  and  _411
REMARK  172  A    between atoms: _414  and  _416
REMARK  173  A    between atoms: _416  and  _417
REMARK  174  A    between atoms: _416  and  _419
REMARK  175  A    between atoms: _422  and  _424
REMARK  176  A    between atoms: _424  and  _425
REMARK  177  A    between atoms: _424  and  _427
REMARK  178  A    between atoms: _427  and  _428
REMARK  179  A    between atoms: _431  and  _433
REMARK  180  A    between atoms: _433  and  _434
REMARK  181  A    between atoms: _433  and  _436
REMARK  182  A    between atoms: _436  and  _437
REMARK  183  A    between atoms: _441  and  _442
REMARK  184  A    between atoms: _447  and  _449
REMARK  185  A    between atoms: _449  and  _450
REMARK  186  A    between atoms: _449  and  _452
REMARK  187  A    between atoms: _455  and  _457
REMARK  188  A    between atoms: _457  and  _458
REMARK  189  A    between atoms: _457  and  _460
REMARK  190  A    between atoms: _460  and  _461
REMARK  191  A    between atoms: _466  and  _468
REMARK  192  A    between atoms: _468  and  _469
REMARK  193  A    between atoms: _468  and  _471
REMARK  194  A    between atoms: _471  and  _472
REMARK  195  A    between atoms: _475  and  _477
REMARK  196  A    between atoms: _477  and  _478
REMARK  197  A    between atoms: _477  and  _480
REMARK  198  A    between atoms: _480  and  _481
REMARK  199  A    between atoms: _484  and  _486
REMARK  200  A    between atoms: _486  and  _487
REMARK  201  A    between atoms: _489  and  _491
REMARK  202  A    between atoms: _491  and  _492
REMARK  203  A    between atoms: _491  and  _494
REMARK  204  A    between atoms: _494  and  _495
REMARK  205  A    between atoms: _495  and  _496
REMARK  206  A    between atoms: _496  and  _497
REMARK  207  A    between atoms: _506  and  _508
REMARK  208  A    between atoms: _508  and  _509
REMARK  209  A    between atoms: _508  and  _511
REMARK  210  A    between atoms: _511  and  _512
REMARK                            x       y       z     vdW  Elec       q    Type
REMARK                         _______ _______ _______ _____ _____    ______ ____
ROOT
ATOM      1  O   HOH     1      20.145  31.952  11.730  0.00  0.00    +0.000 OA
ENDROOT
TORSDOF 0
REMARK  Name = ../refined-set-2016/2i0a/2i0a_pocket.pdb
REMARK  210 active torsions:
REMARK  status: ('A' for Active; 'I' for Inactive)
REMARK    1  A    between atoms: _1  and  _3
REMARK    2  A    between atoms: _3  and  _4
REMARK    3  A    between atoms: _3  and  _6
REMARK    4  A    between atoms: _6  and  _7
REMARK    5  A    between atoms: _7  and  _8
REMARK    6  A    between atoms: _8  and  _9
REMARK    7  A    between atoms: _18  and  _20
REMARK    8  A    between atoms: _20  and  _21
REMARK    9  A    between atoms: _20  and  _23
REMARK   10  A    between atoms: _23  and  _24
REMARK   11  A    between atoms: _27  and  _29
REMARK   12  A    between atoms: _29  and  _30
REMARK   13  A    between atoms: _29  and  _32
REMARK   14  A    between atoms: _32  and  _33
REMARK   15  A    between atoms: _36  and  _38
REMARK   16  A    between atoms: _38  and  _39
REMARK   17  A    between atoms: _38  and  _41
REMARK   18  A    between atoms: _41  and  _42
REMARK   19  A    between atoms: _45  and  _47
REMARK   20  A    between atoms: _47  and  _48
REMARK   21  A    between atoms: _47  and  _50
REMARK   22  A    between atoms: _50  and  _51
REMARK   23  A    between atoms: _54  and  _56
REMARK   24  A    between atoms: _56  and  _57
REMARK   25  A    between atoms: _59  and  _61
REMARK   26  A    between atoms: _61  and  _62
REMARK   27  A    between atoms: _65  and  _67
REMARK   28  A    between atoms: _67  and  _68
REMARK   29  A    between atoms: _67  and  _70
REMARK   30  A    between atoms: _70  and  _71
REMARK   31  A    between atoms: _74  and  _76
REMARK   32  A    between atoms: _76  and  _77
REMARK   33  A    between atoms: _76  and  _79
REMARK   34  A    between atoms: _79  and  _80
REMARK   35  A    between atoms: _83  and  _85
REMARK   36  A    between atoms: _85  and  _86
REMARK   37  A    between atoms: _85  and  _88
REMARK   38  A    between atoms: _88  and  _89
REMARK   39  A    between atoms: _92  and  _94
REMARK   40  A    between atoms: _94  and  _95
REMARK   41  A    between atoms: _94  and  _97
REMARK   42  A    between atoms: _100  and  _102
REMARK   43  A    between atoms: _102  and  _103
REMARK   44  A    between atoms: _102  and  _105
REMARK   45  A    between atoms: _105  and  _106
REMARK   46  A    between atoms: _106  and  _107
REMARK   47  A    between atoms: _109  and  _111
REMARK   48  A    between atoms: _111  and  _112
REMARK   49  A    between atoms: _111  and  _114
REMARK   50  A    between atoms: _114  and  _115
REMARK   51  A    between atoms: _118  and  _120
REMARK   52  A    between atoms: _120  and  _121
REMARK   53  A    between atoms: _123  and  _125
REMARK   54  A    between atoms: _125  and  _126
REMARK   55  A    between atoms: _128  and  _130
REMARK   56  A    between atoms: _130  and  _131
REMARK   57  A    between atoms: _130  and  _133
REMARK   58  A    between atoms: _133  and  _134
REMARK   59  A    between atoms: _137  and  _139
REMARK   60  A    between atoms: _139  and  _140
REMARK   61  A    between atoms: _142  and  _144
REMARK   62  A    between atoms: _144  and  _145
REMARK   63  A    between atoms: _147  and  _149
REMARK   64  A    between atoms: _149  and  _150
REMARK   65  A    between atoms: _149  and  _152
REMARK   66  A    between atoms: _152  and  _153
REMARK   67  A    between atoms: _159  and  _161
REMARK   68  A    between atoms: _161  and  _162
REMARK   69  A    between atoms: _161  and  _164
REMARK   70  A    between atoms: _164  and  _165
REMARK   71  A    between atoms: _169  and  _170
REMARK   72  A    between atoms: _175  and  _177
REMARK   73  A    between atoms: _177  and  _178
REMARK   74  A    between atoms: _177  and  _180
REMARK   75  A    between atoms: _183  and  _185
REMARK   76  A    between atoms: _185  and  _186
REMARK   77  A    between atoms: _185  and  _188
REMARK   78  A    between atoms: _188  and  _189
REMARK   79  A    between atoms: _194  and  _196
REMARK   80  A    between atoms: _196  and  _197
REMARK   81  A    between atoms: _196  and  _199
REMARK   82  A    between atoms: _199  and  _200
REMARK   83  A    between atoms: _203  and  _205
REMARK   84  A    between atoms: _205  and  _206
REMARK   85  A    between atoms: _205  and  _208
REMARK   86  A    between atoms: _208  and  _209
REMARK   87  A    between atoms: _212  and  _214
REMARK   88  A    between atoms: _214  and  _215
REMARK   89  A    between atoms: _217  and  _219
REMARK   90  A    between atoms: _219  and  _220
REMARK   91  A    between atoms: _219  and  _222
REMARK   92  A    between atoms: _222  and  _223
REMARK   93  A    between atoms: _223  and  _224
REMARK   94  A    between atoms: _224  and  _225
REMARK   95  A    between atoms: _234  and  _236
REMARK   96  A    between atoms: _236  and  _237
REMARK   97  A    between atoms: _236  and  _239
REMARK   98  A    between atoms: _239  and  _240
REMARK   99  A    between atoms: _240  and  _241
REMARK  100  A    between atoms: _241  and  _242
REMARK  101  A    between atoms: _251  and  _253
REMARK  102  A    between atoms: _253  and  _254
REMARK  103  A    between atoms: _253  and  _256
REMARK  104  A    between atoms: _256  and  _257
REMARK  105  A    between atoms: _260  and  _262
REMARK  106  A    between atoms: _262  and  _263
REMARK  107  A    between atoms: _262  and  _265
REMARK  108  A    between atoms: _265  and  _266
REMARK  109  A    between atoms: _269  and  _271
REMARK  110  A    between atoms: _271  and  _272
REMARK  111  A    between atoms: _271  and  _274
REMARK  112  A    between atoms: _274  and  _275
REMARK  113  A    between atoms: _278  and  _280
REMARK  114  A    between atoms: _280  and  _281
REMARK  115  A    between atoms: _280  and  _283
REMARK  116  A    between atoms: _283  and  _284
REMARK  117  A    between atoms: _287  and  _289
REMARK  118  A    between atoms: _289  and  _290
REMARK  119  A    between atoms: _292  and  _294
REMARK  120  A    between atoms: _294  and  _295
REMARK  121  A    between atoms: _298  and  _300
REMARK  122  A    between atoms: _300  and  _301
REMARK  123  A    between atoms: _300  and  _303
REMARK  124  A    between atoms: _303  and  _304
REMARK  125  A    between atoms: _307  and  _309
REMARK  126  A    between atoms: _309  and  _310
REMARK  127  A    between atoms: _309  and  _312
REMARK  128  A    between atoms: _312  and  _313
REMARK  129  A    between atoms: _316  and  _318
REMARK  130  A    between atoms: _318  and  _319
REMARK  131  A    between atoms: _318  and  _321
REMARK  132  A    between atoms: _321  and  _322
REMARK  133  A    between atoms: _325  and  _327
REMARK  134  A    between atoms: _327  and  _328
REMARK  135  A    between atoms: _327  and  _330
REMARK  136  A    between atoms: _333  and  _335
REMARK  137  A    between atoms: _335  and  _336
REMARK  138  A    between atoms: _335  and  _338
REMARK  139  A    between atoms: _338  and  _339
REMARK  140  A    between atoms: _339  and  _340
REMARK  141  A    between atoms: _340  and  _341
REMARK  142  A    between atoms: _341  and  _342
REMARK  143  A    between atoms: _346  and  _348
REMARK  144  A    between atoms: _348  and  _349
REMARK  145  A    between atoms: _348  and  _351
REMARK  146  A    between atoms: _351  and  _352
REMARK  147  A    between atoms: _352  and  _353
REMARK  148  A    between atoms: _355  and  _357
REMARK  149  A    between atoms: _357  and  _358
REMARK  150  A    between atoms: _357  and  _360
REMARK  151  A    between atoms: _360  and  _361
REMARK  152  A    between atoms: _364  and  _366
REMARK  153  A    between atoms: _366  and  _367
REMARK  154  A    between atoms: _369  and  _371
REMARK  155  A    between atoms: _371  and  _372
REMARK  156  A    between atoms: _374  and  _376
REMARK  157  A    between atoms: _376  and  _377
REMARK  158  A    between atoms: _376  and  _379
REMARK  159  A    between atoms: _379  and  _380
REMARK  160  A    between atoms: _383  and  _385
REMARK  161  A    between atoms: _385  and  _386
REMARK  162  A    between atoms: _388  and  _390
REMARK  163  A    between atoms: _390  and  _391
REMARK  164  A    between atoms: _393  and  _395
REMARK  165  A    between atoms: _395  and  _396
REMARK  166  A    between atoms: _395  and  _398
REMARK  167  A    between atoms: _398  and  _399
REMARK  168  A    between atoms: _405  and  _407
REMARK  169  A    between atoms: _407  and  _408
REMARK  170  A    between atoms: _407  and  _410
REMARK  171  A    between atoms: _410  and  _411
REMARK  172  A    between atoms: _414  and  _416
REMARK  173  A    between atoms: _416  and  _417
REMARK  174  A    between atoms: _416  and  _419
REMARK  175  A    between atoms: _422  and  _424
REMARK  176  A    between atoms: _424  and  _425
REMARK  177  A    between atoms: _424  and  _427
REMARK  178  A    between atoms: _427  and  _428
REMARK  179  A    between atoms: _431  and  _433
REMARK  180  A    between atoms: _433  and  _434
REMARK  181  A    between atoms: _433  and  _436
REMARK  182  A    between atoms: _436  and  _437
REMARK  183  A    between atoms: _441  and  _442
REMARK  184  A    between atoms: _447  and  _449
REMARK  185  A    between atoms: _449  and  _450
REMARK  186  A    between atoms: _449  and  _452
REMARK  187  A    between atoms: _455  and  _457
REMARK  188  A    between atoms: _457  and  _458
REMARK  189  A    between atoms: _457  and  _460
REMARK  190  A    between atoms: _460  and  _461
REMARK  191  A    between atoms: _466  and  _468
REMARK  192  A    between atoms: _468  and  _469
REMARK  193  A    between atoms: _468  and  _471
REMARK  194  A    between atoms: _471  and  _472
REMARK  195  A    between atoms: _475  and  _477
REMARK  196  A    between atoms: _477  and  _478
REMARK  197  A    between atoms: _477  and  _480
REMARK  198  A    between atoms: _480  and  _481
REMARK  199  A    between atoms: _484  and  _486
REMARK  200  A    between atoms: _486  and  _487
REMARK  201  A    between atoms: _489  and  _491
REMARK  202  A    between atoms: _491  and  _492
REMARK  203  A    between atoms: _491  and  _494
REMARK  204  A    between atoms: _494  and  _495
REMARK  205  A    between atoms: _495  and  _496
REMARK  206  A    between atoms: _496  and  _497
REMARK  207  A    between atoms: _506  and  _508
REMARK  208  A    between atoms: _508  and  _509
REMARK  209  A    between atoms: _508  and  _511
REMARK  210  A    between atoms: _511  and  _512
REMARK                            x       y       z     vdW  Elec       q    Type
REMARK                         _______ _______ _______ _____ _____    ______ ____
ROOT
ATOM      1  O   HOH     1      24.956  24.212   8.159  0.00  0.00    +0.000 OA
ENDROOT
TORSDOF 0
REMARK  Name = ../refined-set-2016/2i0a/2i0a_pocket.pdb
REMARK  210 active torsions:
REMARK  status: ('A' for Active; 'I' for Inactive)
REMARK    1  A    between atoms: _1  and  _3
REMARK    2  A    between atoms: _3  and  _4
REMARK    3  A    between atoms: _3  and  _6
REMARK    4  A    between atoms: _6  and  _7
REMARK    5  A    between atoms: _7  and  _8
REMARK    6  A    between atoms: _8  and  _9
REMARK    7  A    between atoms: _18  and  _20
REMARK    8  A    between atoms: _20  and  _21
REMARK    9  A    between atoms: _20  and  _23
REMARK   10  A    between atoms: _23  and  _24
REMARK   11  A    between atoms: _27  and  _29
REMARK   12  A    between atoms: _29  and  _30
REMARK   13  A    between atoms: _29  and  _32
REMARK   14  A    between atoms: _32  and  _33
REMARK   15  A    between atoms: _36  and  _38
REMARK   16  A    between atoms: _38  and  _39
REMARK   17  A    between atoms: _38  and  _41
REMARK   18  A    between atoms: _41  and  _42
REMARK   19  A    between atoms: _45  and  _47
REMARK   20  A    between atoms: _47  and  _48
REMARK   21  A    between atoms: _47  and  _50
REMARK   22  A    between atoms: _50  and  _51
REMARK   23  A    between atoms: _54  and  _56
REMARK   24  A    between atoms: _56  and  _57
REMARK   25  A    between atoms: _59  and  _61
REMARK   26  A    between atoms: _61  and  _62
REMARK   27  A    between atoms: _65  and  _67
REMARK   28  A    between atoms: _67  and  _68
REMARK   29  A    between atoms: _67  and  _70
REMARK   30  A    between atoms: _70  and  _71
REMARK   31  A    between atoms: _74  and  _76
REMARK   32  A    between atoms: _76  and  _77
REMARK   33  A    between atoms: _76  and  _79
REMARK   34  A    between atoms: _79  and  _80
REMARK   35  A    between atoms: _83  and  _85
REMARK   36  A    between atoms: _85  and  _86
REMARK   37  A    between atoms: _85  and  _88
REMARK   38  A    between atoms: _88  and  _89
REMARK   39  A    between atoms: _92  and  _94
REMARK   40  A    between atoms: _94  and  _95
REMARK   41  A    between atoms: _94  and  _97
REMARK   42  A    between atoms: _100  and  _102
REMARK   43  A    between atoms: _102  and  _103
REMARK   44  A    between atoms: _102  and  _105
REMARK   45  A    between atoms: _105  and  _106
REMARK   46  A    between atoms: _106  and  _107
REMARK   47  A    between atoms: _109  and  _111
REMARK   48  A    between atoms: _111  and  _112
REMARK   49  A    between atoms: _111  and  _114
REMARK   50  A    between atoms: _114  and  _115
REMARK   51  A    between atoms: _118  and  _120
REMARK   52  A    between atoms: _120  and  _121
REMARK   53  A    between atoms: _123  and  _125
REMARK   54  A    between atoms: _125  and  _126
REMARK   55  A    between atoms: _128  and  _130
REMARK   56  A    between atoms: _130  and  _131
REMARK   57  A    between atoms: _130  and  _133
REMARK   58  A    between atoms: _133  and  _134
REMARK   59  A    between atoms: _137  and  _139
REMARK   60  A    between atoms: _139  and  _140
REMARK   61  A    between atoms: _142  and  _144
REMARK   62  A    between atoms: _144  and  _145
REMARK   63  A    between atoms: _147  and  _149
REMARK   64  A    between atoms: _149  and  _150
REMARK   65  A    between atoms: _149  and  _152
REMARK   66  A    between atoms: _152  and  _153
REMARK   67  A    between atoms: _159  and  _161
REMARK   68  A    between atoms: _161  and  _162
REMARK   69  A    between atoms: _161  and  _164
REMARK   70  A    between atoms: _164  and  _165
REMARK   71  A    between atoms: _169  and  _170
REMARK   72  A    between atoms: _175  and  _177
REMARK   73  A    between atoms: _177  and  _178
REMARK   74  A    between atoms: _177  and  _180
REMARK   75  A    between atoms: _183  and  _185
REMARK   76  A    between atoms: _185  and  _186
REMARK   77  A    between atoms: _185  and  _188
REMARK   78  A    between atoms: _188  and  _189
REMARK   79  A    between atoms: _194  and  _196
REMARK   80  A    between atoms: _196  and  _197
REMARK   81  A    between atoms: _196  and  _199
REMARK   82  A    between atoms: _199  and  _200
REMARK   83  A    between atoms: _203  and  _205
REMARK   84  A    between atoms: _205  and  _206
REMARK   85  A    between atoms: _205  and  _208
REMARK   86  A    between atoms: _208  and  _209
REMARK   87  A    between atoms: _212  and  _214
REMARK   88  A    between atoms: _214  and  _215
REMARK   89  A    between atoms: _217  and  _219
REMARK   90  A    between atoms: _219  and  _220
REMARK   91  A    between atoms: _219  and  _222
REMARK   92  A    between atoms: _222  and  _223
REMARK   93  A    between atoms: _223  and  _224
REMARK   94  A    between atoms: _224  and  _225
REMARK   95  A    between atoms: _234  and  _236
REMARK   96  A    between atoms: _236  and  _237
REMARK   97  A    between atoms: _236  and  _239
REMARK   98  A    between atoms: _239  and  _240
REMARK   99  A    between atoms: _240  and  _241
REMARK  100  A    between atoms: _241  and  _242
REMARK  101  A    between atoms: _251  and  _253
REMARK  102  A    between atoms: _253  and  _254
REMARK  103  A    between atoms: _253  and  _256
REMARK  104  A    between atoms: _256  and  _257
REMARK  105  A    between atoms: _260  and  _262
REMARK  106  A    between atoms: _262  and  _263
REMARK  107  A    between atoms: _262  and  _265
REMARK  108  A    between atoms: _265  and  _266
REMARK  109  A    between atoms: _269  and  _271
REMARK  110  A    between atoms: _271  and  _272
REMARK  111  A    between atoms: _271  and  _274
REMARK  112  A    between atoms: _274  and  _275
REMARK  113  A    between atoms: _278  and  _280
REMARK  114  A    between atoms: _280  and  _281
REMARK  115  A    between atoms: _280  and  _283
REMARK  116  A    between atoms: _283  and  _284
REMARK  117  A    between atoms: _287  and  _289
REMARK  118  A    between atoms: _289  and  _290
REMARK  119  A    between atoms: _292  and  _294
REMARK  120  A    between atoms: _294  and  _295
REMARK  121  A    between atoms: _298  and  _300
REMARK  122  A    between atoms: _300  and  _301
REMARK  123  A    between atoms: _300  and  _303
REMARK  124  A    between atoms: _303  and  _304
REMARK  125  A    between atoms: _307  and  _309
REMARK  126  A    between atoms: _309  and  _310
REMARK  127  A    between atoms: _309  and  _312
REMARK  128  A    between atoms: _312  and  _313
REMARK  129  A    between atoms: _316  and  _318
REMARK  130  A    between atoms: _318  and  _319
REMARK  131  A    between atoms: _318  and  _321
REMARK  132  A    between atoms: _321  and  _322
REMARK  133  A    between atoms: _325  and  _327
REMARK  134  A    between atoms: _327  and  _328
REMARK  135  A    between atoms: _327  and  _330
REMARK  136  A    between atoms: _333  and  _335
REMARK  137  A    between atoms: _335  and  _336
REMARK  138  A    between atoms: _335  and  _338
REMARK  139  A    between atoms: _338  and  _339
REMARK  140  A    between atoms: _339  and  _340
REMARK  141  A    between atoms: _340  and  _341
REMARK  142  A    between atoms: _341  and  _342
REMARK  143  A    between atoms: _346  and  _348
REMARK  144  A    between atoms: _348  and  _349
REMARK  145  A    between atoms: _348  and  _351
REMARK  146  A    between atoms: _351  and  _352
REMARK  147  A    between atoms: _352  and  _353
REMARK  148  A    between atoms: _355  and  _357
REMARK  149  A    between atoms: _357  and  _358
REMARK  150  A    between atoms: _357  and  _360
REMARK  151  A    between atoms: _360  and  _361
REMARK  152  A    between atoms: _364  and  _366
REMARK  153  A    between atoms: _366  and  _367
REMARK  154  A    between atoms: _369  and  _371
REMARK  155  A    between atoms: _371  and  _372
REMARK  156  A    between atoms: _374  and  _376
REMARK  157  A    between atoms: _376  and  _377
REMARK  158  A    between atoms: _376  and  _379
REMARK  159  A    between atoms: _379  and  _380
REMARK  160  A    between atoms: _383  and  _385
REMARK  161  A    between atoms: _385  and  _386
REMARK  162  A    between atoms: _388  and  _390
REMARK  163  A    between atoms: _390  and  _391
REMARK  164  A    between atoms: _393  and  _395
REMARK  165  A    between atoms: _395  and  _396
REMARK  166  A    between atoms: _395  and  _398
REMARK  167  A    between atoms: _398  and  _399
REMARK  168  A    between atoms: _405  and  _407
REMARK  169  A    between atoms: _407  and  _408
REMARK  170  A    between atoms: _407  and  _410
REMARK  171  A    between atoms: _410  and  _411
REMARK  172  A    between atoms: _414  and  _416
REMARK  173  A    between atoms: _416  and  _417
REMARK  174  A    between atoms: _416  and  _419
REMARK  175  A    between atoms: _422  and  _424
REMARK  176  A    between atoms: _424  and  _425
REMARK  177  A    between atoms: _424  and  _427
REMARK  178  A    between atoms: _427  and  _428
REMARK  179  A    between atoms: _431  and  _433
REMARK  180  A    between atoms: _433  and  _434
REMARK  181  A    between atoms: _433  and  _436
REMARK  182  A    between atoms: _436  and  _437
REMARK  183  A    between atoms: _441  and  _442
REMARK  184  A    between atoms: _447  and  _449
REMARK  185  A    between atoms: _449  and  _450
REMARK  186  A    between atoms: _449  and  _452
REMARK  187  A    between atoms: _455  and  _457
REMARK  188  A    between atoms: _457  and  _458
REMARK  189  A    between atoms: _457  and  _460
REMARK  190  A    between atoms: _460  and  _461
REMARK  191  A    between atoms: _466  and  _468
REMARK  192  A    between atoms: _468  and  _469
REMARK  193  A    between atoms: _468  and  _471
REMARK  194  A    between atoms: _471  and  _472
REMARK  195  A    between atoms: _475  and  _477
REMARK  196  A    between atoms: _477  and  _478
REMARK  197  A    between atoms: _477  and  _480
REMARK  198  A    between atoms: _480  and  _481
REMARK  199  A    between atoms: _484  and  _486
REMARK  200  A    between atoms: _486  and  _487
REMARK  201  A    between atoms: _489  and  _491
REMARK  202  A    between atoms: _491  and  _492
REMARK  203  A    between atoms: _491  and  _494
REMARK  204  A    between atoms: _494  and  _495
REMARK  205  A    between atoms: _495  and  _496
REMARK  206  A    between atoms: _496  and  _497
REMARK  207  A    between atoms: _506  and  _508
REMARK  208  A    between atoms: _508  and  _509
REMARK  209  A    between atoms: _508  and  _511
REMARK  210  A    between atoms: _511  and  _512
REMARK                            x       y       z     vdW  Elec       q    Type
REMARK                         _______ _______ _______ _____ _____    ______ ____
ROOT
ATOM      1  O   HOH     1      26.424  19.928   9.298  0.00  0.00    +0.000 OA
ENDROOT
TORSDOF 0
REMARK  Name = ../refined-set-2016/2i0a/2i0a_pocket.pdb
REMARK  210 active torsions:
REMARK  status: ('A' for Active; 'I' for Inactive)
REMARK    1  A    between atoms: _1  and  _3
REMARK    2  A    between atoms: _3  and  _4
REMARK    3  A    between atoms: _3  and  _6
REMARK    4  A    between atoms: _6  and  _7
REMARK    5  A    between atoms: _7  and  _8
REMARK    6  A    between atoms: _8  and  _9
REMARK    7  A    between atoms: _18  and  _20
REMARK    8  A    between atoms: _20  and  _21
REMARK    9  A    between atoms: _20  and  _23
REMARK   10  A    between atoms: _23  and  _24
REMARK   11  A    between atoms: _27  and  _29
REMARK   12  A    between atoms: _29  and  _30
REMARK   13  A    between atoms: _29  and  _32
REMARK   14  A    between atoms: _32  and  _33
REMARK   15  A    between atoms: _36  and  _38
REMARK   16  A    between atoms: _38  and  _39
REMARK   17  A    between atoms: _38  and  _41
REMARK   18  A    between atoms: _41  and  _42
REMARK   19  A    between atoms: _45  and  _47
REMARK   20  A    between atoms: _47  and  _48
REMARK   21  A    between atoms: _47  and  _50
REMARK   22  A    between atoms: _50  and  _51
REMARK   23  A    between atoms: _54  and  _56
REMARK   24  A    between atoms: _56  and  _57
REMARK   25  A    between atoms: _59  and  _61
REMARK   26  A    between atoms: _61  and  _62
REMARK   27  A    between atoms: _65  and  _67
REMARK   28  A    between atoms: _67  and  _68
REMARK   29  A    between atoms: _67  and  _70
REMARK   30  A    between atoms: _70  and  _71
REMARK   31  A    between atoms: _74  and  _76
REMARK   32  A    between atoms: _76  and  _77
REMARK   33  A    between atoms: _76  and  _79
REMARK   34  A    between atoms: _79  and  _80
REMARK   35  A    between atoms: _83  and  _85
REMARK   36  A    between atoms: _85  and  _86
REMARK   37  A    between atoms: _85  and  _88
REMARK   38  A    between atoms: _88  and  _89
REMARK   39  A    between atoms: _92  and  _94
REMARK   40  A    between atoms: _94  and  _95
REMARK   41  A    between atoms: _94  and  _97
REMARK   42  A    between atoms: _100  and  _102
REMARK   43  A    between atoms: _102  and  _103
REMARK   44  A    between atoms: _102  and  _105
REMARK   45  A    between atoms: _105  and  _106
REMARK   46  A    between atoms: _106  and  _107
REMARK   47  A    between atoms: _109  and  _111
REMARK   48  A    between atoms: _111  and  _112
REMARK   49  A    between atoms: _111  and  _114
REMARK   50  A    between atoms: _114  and  _115
REMARK   51  A    between atoms: _118  and  _120
REMARK   52  A    between atoms: _120  and  _121
REMARK   53  A    between atoms: _123  and  _125
REMARK   54  A    between atoms: _125  and  _126
REMARK   55  A    between atoms: _128  and  _130
REMARK   56  A    between atoms: _130  and  _131
REMARK   57  A    between atoms: _130  and  _133
REMARK   58  A    between atoms: _133  and  _134
REMARK   59  A    between atoms: _137  and  _139
REMARK   60  A    between atoms: _139  and  _140
REMARK   61  A    between atoms: _142  and  _144
REMARK   62  A    between atoms: _144  and  _145
REMARK   63  A    between atoms: _147  and  _149
REMARK   64  A    between atoms: _149  and  _150
REMARK   65  A    between atoms: _149  and  _152
REMARK   66  A    between atoms: _152  and  _153
REMARK   67  A    between atoms: _159  and  _161
REMARK   68  A    between atoms: _161  and  _162
REMARK   69  A    between atoms: _161  and  _164
REMARK   70  A    between atoms: _164  and  _165
REMARK   71  A    between atoms: _169  and  _170
REMARK   72  A    between atoms: _175  and  _177
REMARK   73  A    between atoms: _177  and  _178
REMARK   74  A    between atoms: _177  and  _180
REMARK   75  A    between atoms: _183  and  _185
REMARK   76  A    between atoms: _185  and  _186
REMARK   77  A    between atoms: _185  and  _188
REMARK   78  A    between atoms: _188  and  _189
REMARK   79  A    between atoms: _194  and  _196
REMARK   80  A    between atoms: _196  and  _197
REMARK   81  A    between atoms: _196  and  _199
REMARK   82  A    between atoms: _199  and  _200
REMARK   83  A    between atoms: _203  and  _205
REMARK   84  A    between atoms: _205  and  _206
REMARK   85  A    between atoms: _205  and  _208
REMARK   86  A    between atoms: _208  and  _209
REMARK   87  A    between atoms: _212  and  _214
REMARK   88  A    between atoms: _214  and  _215
REMARK   89  A    between atoms: _217  and  _219
REMARK   90  A    between atoms: _219  and  _220
REMARK   91  A    between atoms: _219  and  _222
REMARK   92  A    between atoms: _222  and  _223
REMARK   93  A    between atoms: _223  and  _224
REMARK   94  A    between atoms: _224  and  _225
REMARK   95  A    between atoms: _234  and  _236
REMARK   96  A    between atoms: _236  and  _237
REMARK   97  A    between atoms: _236  and  _239
REMARK   98  A    between atoms: _239  and  _240
REMARK   99  A    between atoms: _240  and  _241
REMARK  100  A    between atoms: _241  and  _242
REMARK  101  A    between atoms: _251  and  _253
REMARK  102  A    between atoms: _253  and  _254
REMARK  103  A    between atoms: _253  and  _256
REMARK  104  A    between atoms: _256  and  _257
REMARK  105  A    between atoms: _260  and  _262
REMARK  106  A    between atoms: _262  and  _263
REMARK  107  A    between atoms: _262  and  _265
REMARK  108  A    between atoms: _265  and  _266
REMARK  109  A    between atoms: _269  and  _271
REMARK  110  A    between atoms: _271  and  _272
REMARK  111  A    between atoms: _271  and  _274
REMARK  112  A    between atoms: _274  and  _275
REMARK  113  A    between atoms: _278  and  _280
REMARK  114  A    between atoms: _280  and  _281
REMARK  115  A    between atoms: _280  and  _283
REMARK  116  A    between atoms: _283  and  _284
REMARK  117  A    between atoms: _287  and  _289
REMARK  118  A    between atoms: _289  and  _290
REMARK  119  A    between atoms: _292  and  _294
REMARK  120  A    between atoms: _294  and  _295
REMARK  121  A    between atoms: _298  and  _300
REMARK  122  A    between atoms: _300  and  _301
REMARK  123  A    between atoms: _300  and  _303
REMARK  124  A    between atoms: _303  and  _304
REMARK  125  A    between atoms: _307  and  _309
REMARK  126  A    between atoms: _309  and  _310
REMARK  127  A    between atoms: _309  and  _312
REMARK  128  A    between atoms: _312  and  _313
REMARK  129  A    between atoms: _316  and  _318
REMARK  130  A    between atoms: _318  and  _319
REMARK  131  A    between atoms: _318  and  _321
REMARK  132  A    between atoms: _321  and  _322
REMARK  133  A    between atoms: _325  and  _327
REMARK  134  A    between atoms: _327  and  _328
REMARK  135  A    between atoms: _327  and  _330
REMARK  136  A    between atoms: _333  and  _335
REMARK  137  A    between atoms: _335  and  _336
REMARK  138  A    between atoms: _335  and  _338
REMARK  139  A    between atoms: _338  and  _339
REMARK  140  A    between atoms: _339  and  _340
REMARK  141  A    between atoms: _340  and  _341
REMARK  142  A    between atoms: _341  and  _342
REMARK  143  A    between atoms: _346  and  _348
REMARK  144  A    between atoms: _348  and  _349
REMARK  145  A    between atoms: _348  and  _351
REMARK  146  A    between atoms: _351  and  _352
REMARK  147  A    between atoms: _352  and  _353
REMARK  148  A    between atoms: _355  and  _357
REMARK  149  A    between atoms: _357  and  _358
REMARK  150  A    between atoms: _357  and  _360
REMARK  151  A    between atoms: _360  and  _361
REMARK  152  A    between atoms: _364  and  _366
REMARK  153  A    between atoms: _366  and  _367
REMARK  154  A    between atoms: _369  and  _371
REMARK  155  A    between atoms: _371  and  _372
REMARK  156  A    between atoms: _374  and  _376
REMARK  157  A    between atoms: _376  and  _377
REMARK  158  A    between atoms: _376  and  _379
REMARK  159  A    between atoms: _379  and  _380
REMARK  160  A    between atoms: _383  and  _385
REMARK  161  A    between atoms: _385  and  _386
REMARK  162  A    between atoms: _388  and  _390
REMARK  163  A    between atoms: _390  and  _391
REMARK  164  A    between atoms: _393  and  _395
REMARK  165  A    between atoms: _395  and  _396
REMARK  166  A    between atoms: _395  and  _398
REMARK  167  A    between atoms: _398  and  _399
REMARK  168  A    between atoms: _405  and  _407
REMARK  169  A    between atoms: _407  and  _408
REMARK  170  A    between atoms: _407  and  _410
REMARK  171  A    between atoms: _410  and  _411
REMARK  172  A    between atoms: _414  and  _416
REMARK  173  A    between atoms: _416  and  _417
REMARK  174  A    between atoms: _416  and  _419
REMARK  175  A    between atoms: _422  and  _424
REMARK  176  A    between atoms: _424  and  _425
REMARK  177  A    between atoms: _424  and  _427
REMARK  178  A    between atoms: _427  and  _428
REMARK  179  A    between atoms: _431  and  _433
REMARK  180  A    between atoms: _433  and  _434
REMARK  181  A    between atoms: _433  and  _436
REMARK  182  A    between atoms: _436  and  _437
REMARK  183  A    between atoms: _441  and  _442
REMARK  184  A    between atoms: _447  and  _449
REMARK  185  A    between atoms: _449  and  _450
REMARK  186  A    between atoms: _449  and  _452
REMARK  187  A    between atoms: _455  and  _457
REMARK  188  A    between atoms: _457  and  _458
REMARK  189  A    between atoms: _457  and  _460
REMARK  190  A    between atoms: _460  and  _461
REMARK  191  A    between atoms: _466  and  _468
REMARK  192  A    between atoms: _468  and  _469
REMARK  193  A    between atoms: _468  and  _471
REMARK  194  A    between atoms: _471  and  _472
REMARK  195  A    between atoms: _475  and  _477
REMARK  196  A    between atoms: _477  and  _478
REMARK  197  A    between atoms: _477  and  _480
REMARK  198  A    between atoms: _480  and  _481
REMARK  199  A    between atoms: _484  and  _486
REMARK  200  A    between atoms: _486  and  _487
REMARK  201  A    between atoms: _489  and  _491
REMARK  202  A    between atoms: _491  and  _492
REMARK  203  A    between atoms: _491  and  _494
REMARK  204  A    between atoms: _494  and  _495
REMARK  205  A    between atoms: _495  and  _496
REMARK  206  A    between atoms: _496  and  _497
REMARK  207  A    between atoms: _506  and  _508
REMARK  208  A    between atoms: _508  and  _509
REMARK  209  A    between atoms: _508  and  _511
REMARK  210  A    between atoms: _511  and  _512
REMARK                            x       y       z     vdW  Elec       q    Type
REMARK                         _______ _______ _______ _____ _____    ______ ____
ROOT
ATOM      1  O   HOH     1      24.136  21.479   8.413  0.00  0.00    +0.000 OA
ENDROOT
TORSDOF 0
REMARK  Name = ../refined-set-2016/2i0a/2i0a_pocket.pdb
REMARK  210 active torsions:
REMARK  status: ('A' for Active; 'I' for Inactive)
REMARK    1  A    between atoms: _1  and  _3
REMARK    2  A    between atoms: _3  and  _4
REMARK    3  A    between atoms: _3  and  _6
REMARK    4  A    between atoms: _6  and  _7
REMARK    5  A    between atoms: _7  and  _8
REMARK    6  A    between atoms: _8  and  _9
REMARK    7  A    between atoms: _18  and  _20
REMARK    8  A    between atoms: _20  and  _21
REMARK    9  A    between atoms: _20  and  _23
REMARK   10  A    between atoms: _23  and  _24
REMARK   11  A    between atoms: _27  and  _29
REMARK   12  A    between atoms: _29  and  _30
REMARK   13  A    between atoms: _29  and  _32
REMARK   14  A    between atoms: _32  and  _33
REMARK   15  A    between atoms: _36  and  _38
REMARK   16  A    between atoms: _38  and  _39
REMARK   17  A    between atoms: _38  and  _41
REMARK   18  A    between atoms: _41  and  _42
REMARK   19  A    between atoms: _45  and  _47
REMARK   20  A    between atoms: _47  and  _48
REMARK   21  A    between atoms: _47  and  _50
REMARK   22  A    between atoms: _50  and  _51
REMARK   23  A    between atoms: _54  and  _56
REMARK   24  A    between atoms: _56  and  _57
REMARK   25  A    between atoms: _59  and  _61
REMARK   26  A    between atoms: _61  and  _62
REMARK   27  A    between atoms: _65  and  _67
REMARK   28  A    between atoms: _67  and  _68
REMARK   29  A    between atoms: _67  and  _70
REMARK   30  A    between atoms: _70  and  _71
REMARK   31  A    between atoms: _74  and  _76
REMARK   32  A    between atoms: _76  and  _77
REMARK   33  A    between atoms: _76  and  _79
REMARK   34  A    between atoms: _79  and  _80
REMARK   35  A    between atoms: _83  and  _85
REMARK   36  A    between atoms: _85  and  _86
REMARK   37  A    between atoms: _85  and  _88
REMARK   38  A    between atoms: _88  and  _89
REMARK   39  A    between atoms: _92  and  _94
REMARK   40  A    between atoms: _94  and  _95
REMARK   41  A    between atoms: _94  and  _97
REMARK   42  A    between atoms: _100  and  _102
REMARK   43  A    between atoms: _102  and  _103
REMARK   44  A    between atoms: _102  and  _105
REMARK   45  A    between atoms: _105  and  _106
REMARK   46  A    between atoms: _106  and  _107
REMARK   47  A    between atoms: _109  and  _111
REMARK   48  A    between atoms: _111  and  _112
REMARK   49  A    between atoms: _111  and  _114
REMARK   50  A    between atoms: _114  and  _115
REMARK   51  A    between atoms: _118  and  _120
REMARK   52  A    between atoms: _120  and  _121
REMARK   53  A    between atoms: _123  and  _125
REMARK   54  A    between atoms: _125  and  _126
REMARK   55  A    between atoms: _128  and  _130
REMARK   56  A    between atoms: _130  and  _131
REMARK   57  A    between atoms: _130  and  _133
REMARK   58  A    between atoms: _133  and  _134
REMARK   59  A    between atoms: _137  and  _139
REMARK   60  A    between atoms: _139  and  _140
REMARK   61  A    between atoms: _142  and  _144
REMARK   62  A    between atoms: _144  and  _145
REMARK   63  A    between atoms: _147  and  _149
REMARK   64  A    between atoms: _149  and  _150
REMARK   65  A    between atoms: _149  and  _152
REMARK   66  A    between atoms: _152  and  _153
REMARK   67  A    between atoms: _159  and  _161
REMARK   68  A    between atoms: _161  and  _162
REMARK   69  A    between atoms: _161  and  _164
REMARK   70  A    between atoms: _164  and  _165
REMARK   71  A    between atoms: _169  and  _170
REMARK   72  A    between atoms: _175  and  _177
REMARK   73  A    between atoms: _177  and  _178
REMARK   74  A    between atoms: _177  and  _180
REMARK   75  A    between atoms: _183  and  _185
REMARK   76  A    between atoms: _185  and  _186
REMARK   77  A    between atoms: _185  and  _188
REMARK   78  A    between atoms: _188  and  _189
REMARK   79  A    between atoms: _194  and  _196
REMARK   80  A    between atoms: _196  and  _197
REMARK   81  A    between atoms: _196  and  _199
REMARK   82  A    between atoms: _199  and  _200
REMARK   83  A    between atoms: _203  and  _205
REMARK   84  A    between atoms: _205  and  _206
REMARK   85  A    between atoms: _205  and  _208
REMARK   86  A    between atoms: _208  and  _209
REMARK   87  A    between atoms: _212  and  _214
REMARK   88  A    between atoms: _214  and  _215
REMARK   89  A    between atoms: _217  and  _219
REMARK   90  A    between atoms: _219  and  _220
REMARK   91  A    between atoms: _219  and  _222
REMARK   92  A    between atoms: _222  and  _223
REMARK   93  A    between atoms: _223  and  _224
REMARK   94  A    between atoms: _224  and  _225
REMARK   95  A    between atoms: _234  and  _236
REMARK   96  A    between atoms: _236  and  _237
REMARK   97  A    between atoms: _236  and  _239
REMARK   98  A    between atoms: _239  and  _240
REMARK   99  A    between atoms: _240  and  _241
REMARK  100  A    between atoms: _241  and  _242
REMARK  101  A    between atoms: _251  and  _253
REMARK  102  A    between atoms: _253  and  _254
REMARK  103  A    between atoms: _253  and  _256
REMARK  104  A    between atoms: _256  and  _257
REMARK  105  A    between atoms: _260  and  _262
REMARK  106  A    between atoms: _262  and  _263
REMARK  107  A    between atoms: _262  and  _265
REMARK  108  A    between atoms: _265  and  _266
REMARK  109  A    between atoms: _269  and  _271
REMARK  110  A    between atoms: _271  and  _272
REMARK  111  A    between atoms: _271  and  _274
REMARK  112  A    between atoms: _274  and  _275
REMARK  113  A    between atoms: _278  and  _280
REMARK  114  A    between atoms: _280  and  _281
REMARK  115  A    between atoms: _280  and  _283
REMARK  116  A    between atoms: _283  and  _284
REMARK  117  A    between atoms: _287  and  _289
REMARK  118  A    between atoms: _289  and  _290
REMARK  119  A    between atoms: _292  and  _294
REMARK  120  A    between atoms: _294  and  _295
REMARK  121  A    between atoms: _298  and  _300
REMARK  122  A    between atoms: _300  and  _301
REMARK  123  A    between atoms: _300  and  _303
REMARK  124  A    between atoms: _303  and  _304
REMARK  125  A    between atoms: _307  and  _309
REMARK  126  A    between atoms: _309  and  _310
REMARK  127  A    between atoms: _309  and  _312
REMARK  128  A    between atoms: _312  and  _313
REMARK  129  A    between atoms: _316  and  _318
REMARK  130  A    between atoms: _318  and  _319
REMARK  131  A    between atoms: _318  and  _321
REMARK  132  A    between atoms: _321  and  _322
REMARK  133  A    between atoms: _325  and  _327
REMARK  134  A    between atoms: _327  and  _328
REMARK  135  A    between atoms: _327  and  _330
REMARK  136  A    between atoms: _333  and  _335
REMARK  137  A    between atoms: _335  and  _336
REMARK  138  A    between atoms: _335  and  _338
REMARK  139  A    between atoms: _338  and  _339
REMARK  140  A    between atoms: _339  and  _340
REMARK  141  A    between atoms: _340  and  _341
REMARK  142  A    between atoms: _341  and  _342
REMARK  143  A    between atoms: _346  and  _348
REMARK  144  A    between atoms: _348  and  _349
REMARK  145  A    between atoms: _348  and  _351
REMARK  146  A    between atoms: _351  and  _352
REMARK  147  A    between atoms: _352  and  _353
REMARK  148  A    between atoms: _355  and  _357
REMARK  149  A    between atoms: _357  and  _358
REMARK  150  A    between atoms: _357  and  _360
REMARK  151  A    between atoms: _360  and  _361
REMARK  152  A    between atoms: _364  and  _366
REMARK  153  A    between atoms: _366  and  _367
REMARK  154  A    between atoms: _369  and  _371
REMARK  155  A    between atoms: _371  and  _372
REMARK  156  A    between atoms: _374  and  _376
REMARK  157  A    between atoms: _376  and  _377
REMARK  158  A    between atoms: _376  and  _379
REMARK  159  A    between atoms: _379  and  _380
REMARK  160  A    between atoms: _383  and  _385
REMARK  161  A    between atoms: _385  and  _386
REMARK  162  A    between atoms: _388  and  _390
REMARK  163  A    between atoms: _390  and  _391
REMARK  164  A    between atoms: _393  and  _395
REMARK  165  A    between atoms: _395  and  _396
REMARK  166  A    between atoms: _395  and  _398
REMARK  167  A    between atoms: _398  and  _399
REMARK  168  A    between atoms: _405  and  _407
REMARK  169  A    between atoms: _407  and  _408
REMARK  170  A    between atoms: _407  and  _410
REMARK  171  A    between atoms: _410  and  _411
REMARK  172  A    between atoms: _414  and  _416
REMARK  173  A    between atoms: _416  and  _417
REMARK  174  A    between atoms: _416  and  _419
REMARK  175  A    between atoms: _422  and  _424
REMARK  176  A    between atoms: _424  and  _425
REMARK  177  A    between atoms: _424  and  _427
REMARK  178  A    between atoms: _427  and  _428
REMARK  179  A    between atoms: _431  and  _433
REMARK  180  A    between atoms: _433  and  _434
REMARK  181  A    between atoms: _433  and  _436
REMARK  182  A    between atoms: _436  and  _437
REMARK  183  A    between atoms: _441  and  _442
REMARK  184  A    between atoms: _447  and  _449
REMARK  185  A    between atoms: _449  and  _450
REMARK  186  A    between atoms: _449  and  _452
REMARK  187  A    between atoms: _455  and  _457
REMARK  188  A    between atoms: _457  and  _458
REMARK  189  A    between atoms: _457  and  _460
REMARK  190  A    between atoms: _460  and  _461
REMARK  191  A    between atoms: _466  and  _468
REMARK  192  A    between atoms: _468  and  _469
REMARK  193  A    between atoms: _468  and  _471
REMARK  194  A    between atoms: _471  and  _472
REMARK  195  A    between atoms: _475  and  _477
REMARK  196  A    between atoms: _477  and  _478
REMARK  197  A    between atoms: _477  and  _480
REMARK  198  A    between atoms: _480  and  _481
REMARK  199  A    between atoms: _484  and  _486
REMARK  200  A    between atoms: _486  and  _487
REMARK  201  A    between atoms: _489  and  _491
REMARK  202  A    between atoms: _491  and  _492
REMARK  203  A    between atoms: _491  and  _494
REMARK  204  A    between atoms: _494  and  _495
REMARK  205  A    between atoms: _495  and  _496
REMARK  206  A    between atoms: _496  and  _497
REMARK  207  A    between atoms: _506  and  _508
REMARK  208  A    between atoms: _508  and  _509
REMARK  209  A    between atoms: _508  and  _511
REMARK  210  A    between atoms: _511  and  _512
REMARK                            x       y       z     vdW  Elec       q    Type
REMARK                         _______ _______ _______ _____ _____    ______ ____
ROOT
ATOM      1  O   HOH     1      24.310  26.714   9.424  0.00  0.00    +0.000 OA
ENDROOT
TORSDOF 0
REMARK  Name = ../refined-set-2016/2i0a/2i0a_pocket.pdb
REMARK  210 active torsions:
REMARK  status: ('A' for Active; 'I' for Inactive)
REMARK    1  A    between atoms: _1  and  _3
REMARK    2  A    between atoms: _3  and  _4
REMARK    3  A    between atoms: _3  and  _6
REMARK    4  A    between atoms: _6  and  _7
REMARK    5  A    between atoms: _7  and  _8
REMARK    6  A    between atoms: _8  and  _9
REMARK    7  A    between atoms: _18  and  _20
REMARK    8  A    between atoms: _20  and  _21
REMARK    9  A    between atoms: _20  and  _23
REMARK   10  A    between atoms: _23  and  _24
REMARK   11  A    between atoms: _27  and  _29
REMARK   12  A    between atoms: _29  and  _30
REMARK   13  A    between atoms: _29  and  _32
REMARK   14  A    between atoms: _32  and  _33
REMARK   15  A    between atoms: _36  and  _38
REMARK   16  A    between atoms: _38  and  _39
REMARK   17  A    between atoms: _38  and  _41
REMARK   18  A    between atoms: _41  and  _42
REMARK   19  A    between atoms: _45  and  _47
REMARK   20  A    between atoms: _47  and  _48
REMARK   21  A    between atoms: _47  and  _50
REMARK   22  A    between atoms: _50  and  _51
REMARK   23  A    between atoms: _54  and  _56
REMARK   24  A    between atoms: _56  and  _57
REMARK   25  A    between atoms: _59  and  _61
REMARK   26  A    between atoms: _61  and  _62
REMARK   27  A    between atoms: _65  and  _67
REMARK   28  A    between atoms: _67  and  _68
REMARK   29  A    between atoms: _67  and  _70
REMARK   30  A    between atoms: _70  and  _71
REMARK   31  A    between atoms: _74  and  _76
REMARK   32  A    between atoms: _76  and  _77
REMARK   33  A    between atoms: _76  and  _79
REMARK   34  A    between atoms: _79  and  _80
REMARK   35  A    between atoms: _83  and  _85
REMARK   36  A    between atoms: _85  and  _86
REMARK   37  A    between atoms: _85  and  _88
REMARK   38  A    between atoms: _88  and  _89
REMARK   39  A    between atoms: _92  and  _94
REMARK   40  A    between atoms: _94  and  _95
REMARK   41  A    between atoms: _94  and  _97
REMARK   42  A    between atoms: _100  and  _102
REMARK   43  A    between atoms: _102  and  _103
REMARK   44  A    between atoms: _102  and  _105
REMARK   45  A    between atoms: _105  and  _106
REMARK   46  A    between atoms: _106  and  _107
REMARK   47  A    between atoms: _109  and  _111
REMARK   48  A    between atoms: _111  and  _112
REMARK   49  A    between atoms: _111  and  _114
REMARK   50  A    between atoms: _114  and  _115
REMARK   51  A    between atoms: _118  and  _120
REMARK   52  A    between atoms: _120  and  _121
REMARK   53  A    between atoms: _123  and  _125
REMARK   54  A    between atoms: _125  and  _126
REMARK   55  A    between atoms: _128  and  _130
REMARK   56  A    between atoms: _130  and  _131
REMARK   57  A    between atoms: _130  and  _133
REMARK   58  A    between atoms: _133  and  _134
REMARK   59  A    between atoms: _137  and  _139
REMARK   60  A    between atoms: _139  and  _140
REMARK   61  A    between atoms: _142  and  _144
REMARK   62  A    between atoms: _144  and  _145
REMARK   63  A    between atoms: _147  and  _149
REMARK   64  A    between atoms: _149  and  _150
REMARK   65  A    between atoms: _149  and  _152
REMARK   66  A    between atoms: _152  and  _153
REMARK   67  A    between atoms: _159  and  _161
REMARK   68  A    between atoms: _161  and  _162
REMARK   69  A    between atoms: _161  and  _164
REMARK   70  A    between atoms: _164  and  _165
REMARK   71  A    between atoms: _169  and  _170
REMARK   72  A    between atoms: _175  and  _177
REMARK   73  A    between atoms: _177  and  _178
REMARK   74  A    between atoms: _177  and  _180
REMARK   75  A    between atoms: _183  and  _185
REMARK   76  A    between atoms: _185  and  _186
REMARK   77  A    between atoms: _185  and  _188
REMARK   78  A    between atoms: _188  and  _189
REMARK   79  A    between atoms: _194  and  _196
REMARK   80  A    between atoms: _196  and  _197
REMARK   81  A    between atoms: _196  and  _199
REMARK   82  A    between atoms: _199  and  _200
REMARK   83  A    between atoms: _203  and  _205
REMARK   84  A    between atoms: _205  and  _206
REMARK   85  A    between atoms: _205  and  _208
REMARK   86  A    between atoms: _208  and  _209
REMARK   87  A    between atoms: _212  and  _214
REMARK   88  A    between atoms: _214  and  _215
REMARK   89  A    between atoms: _217  and  _219
REMARK   90  A    between atoms: _219  and  _220
REMARK   91  A    between atoms: _219  and  _222
REMARK   92  A    between atoms: _222  and  _223
REMARK   93  A    between atoms: _223  and  _224
REMARK   94  A    between atoms: _224  and  _225
REMARK   95  A    between atoms: _234  and  _236
REMARK   96  A    between atoms: _236  and  _237
REMARK   97  A    between atoms: _236  and  _239
REMARK   98  A    between atoms: _239  and  _240
REMARK   99  A    between atoms: _240  and  _241
REMARK  100  A    between atoms: _241  and  _242
REMARK  101  A    between atoms: _251  and  _253
REMARK  102  A    between atoms: _253  and  _254
REMARK  103  A    between atoms: _253  and  _256
REMARK  104  A    between atoms: _256  and  _257
REMARK  105  A    between atoms: _260  and  _262
REMARK  106  A    between atoms: _262  and  _263
REMARK  107  A    between atoms: _262  and  _265
REMARK  108  A    between atoms: _265  and  _266
REMARK  109  A    between atoms: _269  and  _271
REMARK  110  A    between atoms: _271  and  _272
REMARK  111  A    between atoms: _271  and  _274
REMARK  112  A    between atoms: _274  and  _275
REMARK  113  A    between atoms: _278  and  _280
REMARK  114  A    between atoms: _280  and  _281
REMARK  115  A    between atoms: _280  and  _283
REMARK  116  A    between atoms: _283  and  _284
REMARK  117  A    between atoms: _287  and  _289
REMARK  118  A    between atoms: _289  and  _290
REMARK  119  A    between atoms: _292  and  _294
REMARK  120  A    between atoms: _294  and  _295
REMARK  121  A    between atoms: _298  and  _300
REMARK  122  A    between atoms: _300  and  _301
REMARK  123  A    between atoms: _300  and  _303
REMARK  124  A    between atoms: _303  and  _304
REMARK  125  A    between atoms: _307  and  _309
REMARK  126  A    between atoms: _309  and  _310
REMARK  127  A    between atoms: _309  and  _312
REMARK  128  A    between atoms: _312  and  _313
REMARK  129  A    between atoms: _316  and  _318
REMARK  130  A    between atoms: _318  and  _319
REMARK  131  A    between atoms: _318  and  _321
REMARK  132  A    between atoms: _321  and  _322
REMARK  133  A    between atoms: _325  and  _327
REMARK  134  A    between atoms: _327  and  _328
REMARK  135  A    between atoms: _327  and  _330
REMARK  136  A    between atoms: _333  and  _335
REMARK  137  A    between atoms: _335  and  _336
REMARK  138  A    between atoms: _335  and  _338
REMARK  139  A    between atoms: _338  and  _339
REMARK  140  A    between atoms: _339  and  _340
REMARK  141  A    between atoms: _340  and  _341
REMARK  142  A    between atoms: _341  and  _342
REMARK  143  A    between atoms: _346  and  _348
REMARK  144  A    between atoms: _348  and  _349
REMARK  145  A    between atoms: _348  and  _351
REMARK  146  A    between atoms: _351  and  _352
REMARK  147  A    between atoms: _352  and  _353
REMARK  148  A    between atoms: _355  and  _357
REMARK  149  A    between atoms: _357  and  _358
REMARK  150  A    between atoms: _357  and  _360
REMARK  151  A    between atoms: _360  and  _361
REMARK  152  A    between atoms: _364  and  _366
REMARK  153  A    between atoms: _366  and  _367
REMARK  154  A    between atoms: _369  and  _371
REMARK  155  A    between atoms: _371  and  _372
REMARK  156  A    between atoms: _374  and  _376
REMARK  157  A    between atoms: _376  and  _377
REMARK  158  A    between atoms: _376  and  _379
REMARK  159  A    between atoms: _379  and  _380
REMARK  160  A    between atoms: _383  and  _385
REMARK  161  A    between atoms: _385  and  _386
REMARK  162  A    between atoms: _388  and  _390
REMARK  163  A    between atoms: _390  and  _391
REMARK  164  A    between atoms: _393  and  _395
REMARK  165  A    between atoms: _395  and  _396
REMARK  166  A    between atoms: _395  and  _398
REMARK  167  A    between atoms: _398  and  _399
REMARK  168  A    between atoms: _405  and  _407
REMARK  169  A    between atoms: _407  and  _408
REMARK  170  A    between atoms: _407  and  _410
REMARK  171  A    between atoms: _410  and  _411
REMARK  172  A    between atoms: _414  and  _416
REMARK  173  A    between atoms: _416  and  _417
REMARK  174  A    between atoms: _416  and  _419
REMARK  175  A    between atoms: _422  and  _424
REMARK  176  A    between atoms: _424  and  _425
REMARK  177  A    between atoms: _424  and  _427
REMARK  178  A    between atoms: _427  and  _428
REMARK  179  A    between atoms: _431  and  _433
REMARK  180  A    between atoms: _433  and  _434
REMARK  181  A    between atoms: _433  and  _436
REMARK  182  A    between atoms: _436  and  _437
REMARK  183  A    between atoms: _441  and  _442
REMARK  184  A    between atoms: _447  and  _449
REMARK  185  A    between atoms: _449  and  _450
REMARK  186  A    between atoms: _449  and  _452
REMARK  187  A    between atoms: _455  and  _457
REMARK  188  A    between atoms: _457  and  _458
REMARK  189  A    between atoms: _457  and  _460
REMARK  190  A    between atoms: _460  and  _461
REMARK  191  A    between atoms: _466  and  _468
REMARK  192  A    between atoms: _468  and  _469
REMARK  193  A    between atoms: _468  and  _471
REMARK  194  A    between atoms: _471  and  _472
REMARK  195  A    between atoms: _475  and  _477
REMARK  196  A    between atoms: _477  and  _478
REMARK  197  A    between atoms: _477  and  _480
REMARK  198  A    between atoms: _480  and  _481
REMARK  199  A    between atoms: _484  and  _486
REMARK  200  A    between atoms: _486  and  _487
REMARK  201  A    between atoms: _489  and  _491
REMARK  202  A    between atoms: _491  and  _492
REMARK  203  A    between atoms: _491  and  _494
REMARK  204  A    between atoms: _494  and  _495
REMARK  205  A    between atoms: _495  and  _496
REMARK  206  A    between atoms: _496  and  _497
REMARK  207  A    between atoms: _506  and  _508
REMARK  208  A    between atoms: _508  and  _509
REMARK  209  A    between atoms: _508  and  _511
REMARK  210  A    between atoms: _511  and  _512
REMARK                            x       y       z     vdW  Elec       q    Type
REMARK                         _______ _______ _______ _____ _____    ______ ____
ROOT
ATOM      1  O   HOH     1      28.142  22.085   7.139  0.00  0.00    +0.000 OA
ENDROOT
TORSDOF 0
REMARK  Name = ../refined-set-2016/2i0a/2i0a_pocket.pdb
REMARK  210 active torsions:
REMARK  status: ('A' for Active; 'I' for Inactive)
REMARK    1  A    between atoms: _1  and  _3
REMARK    2  A    between atoms: _3  and  _4
REMARK    3  A    between atoms: _3  and  _6
REMARK    4  A    between atoms: _6  and  _7
REMARK    5  A    between atoms: _7  and  _8
REMARK    6  A    between atoms: _8  and  _9
REMARK    7  A    between atoms: _18  and  _20
REMARK    8  A    between atoms: _20  and  _21
REMARK    9  A    between atoms: _20  and  _23
REMARK   10  A    between atoms: _23  and  _24
REMARK   11  A    between atoms: _27  and  _29
REMARK   12  A    between atoms: _29  and  _30
REMARK   13  A    between atoms: _29  and  _32
REMARK   14  A    between atoms: _32  and  _33
REMARK   15  A    between atoms: _36  and  _38
REMARK   16  A    between atoms: _38  and  _39
REMARK   17  A    between atoms: _38  and  _41
REMARK   18  A    between atoms: _41  and  _42
REMARK   19  A    between atoms: _45  and  _47
REMARK   20  A    between atoms: _47  and  _48
REMARK   21  A    between atoms: _47  and  _50
REMARK   22  A    between atoms: _50  and  _51
REMARK   23  A    between atoms: _54  and  _56
REMARK   24  A    between atoms: _56  and  _57
REMARK   25  A    between atoms: _59  and  _61
REMARK   26  A    between atoms: _61  and  _62
REMARK   27  A    between atoms: _65  and  _67
REMARK   28  A    between atoms: _67  and  _68
REMARK   29  A    between atoms: _67  and  _70
REMARK   30  A    between atoms: _70  and  _71
REMARK   31  A    between atoms: _74  and  _76
REMARK   32  A    between atoms: _76  and  _77
REMARK   33  A    between atoms: _76  and  _79
REMARK   34  A    between atoms: _79  and  _80
REMARK   35  A    between atoms: _83  and  _85
REMARK   36  A    between atoms: _85  and  _86
REMARK   37  A    between atoms: _85  and  _88
REMARK   38  A    between atoms: _88  and  _89
REMARK   39  A    between atoms: _92  and  _94
REMARK   40  A    between atoms: _94  and  _95
REMARK   41  A    between atoms: _94  and  _97
REMARK   42  A    between atoms: _100  and  _102
REMARK   43  A    between atoms: _102  and  _103
REMARK   44  A    between atoms: _102  and  _105
REMARK   45  A    between atoms: _105  and  _106
REMARK   46  A    between atoms: _106  and  _107
REMARK   47  A    between atoms: _109  and  _111
REMARK   48  A    between atoms: _111  and  _112
REMARK   49  A    between atoms: _111  and  _114
REMARK   50  A    between atoms: _114  and  _115
REMARK   51  A    between atoms: _118  and  _120
REMARK   52  A    between atoms: _120  and  _121
REMARK   53  A    between atoms: _123  and  _125
REMARK   54  A    between atoms: _125  and  _126
REMARK   55  A    between atoms: _128  and  _130
REMARK   56  A    between atoms: _130  and  _131
REMARK   57  A    between atoms: _130  and  _133
REMARK   58  A    between atoms: _133  and  _134
REMARK   59  A    between atoms: _137  and  _139
REMARK   60  A    between atoms: _139  and  _140
REMARK   61  A    between atoms: _142  and  _144
REMARK   62  A    between atoms: _144  and  _145
REMARK   63  A    between atoms: _147  and  _149
REMARK   64  A    between atoms: _149  and  _150
REMARK   65  A    between atoms: _149  and  _152
REMARK   66  A    between atoms: _152  and  _153
REMARK   67  A    between atoms: _159  and  _161
REMARK   68  A    between atoms: _161  and  _162
REMARK   69  A    between atoms: _161  and  _164
REMARK   70  A    between atoms: _164  and  _165
REMARK   71  A    between atoms: _169  and  _170
REMARK   72  A    between atoms: _175  and  _177
REMARK   73  A    between atoms: _177  and  _178
REMARK   74  A    between atoms: _177  and  _180
REMARK   75  A    between atoms: _183  and  _185
REMARK   76  A    between atoms: _185  and  _186
REMARK   77  A    between atoms: _185  and  _188
REMARK   78  A    between atoms: _188  and  _189
REMARK   79  A    between atoms: _194  and  _196
REMARK   80  A    between atoms: _196  and  _197
REMARK   81  A    between atoms: _196  and  _199
REMARK   82  A    between atoms: _199  and  _200
REMARK   83  A    between atoms: _203  and  _205
REMARK   84  A    between atoms: _205  and  _206
REMARK   85  A    between atoms: _205  and  _208
REMARK   86  A    between atoms: _208  and  _209
REMARK   87  A    between atoms: _212  and  _214
REMARK   88  A    between atoms: _214  and  _215
REMARK   89  A    between atoms: _217  and  _219
REMARK   90  A    between atoms: _219  and  _220
REMARK   91  A    between atoms: _219  and  _222
REMARK   92  A    between atoms: _222  and  _223
REMARK   93  A    between atoms: _223  and  _224
REMARK   94  A    between atoms: _224  and  _225
REMARK   95  A    between atoms: _234  and  _236
REMARK   96  A    between atoms: _236  and  _237
REMARK   97  A    between atoms: _236  and  _239
REMARK   98  A    between atoms: _239  and  _240
REMARK   99  A    between atoms: _240  and  _241
REMARK  100  A    between atoms: _241  and  _242
REMARK  101  A    between atoms: _251  and  _253
REMARK  102  A    between atoms: _253  and  _254
REMARK  103  A    between atoms: _253  and  _256
REMARK  104  A    between atoms: _256  and  _257
REMARK  105  A    between atoms: _260  and  _262
REMARK  106  A    between atoms: _262  and  _263
REMARK  107  A    between atoms: _262  and  _265
REMARK  108  A    between atoms: _265  and  _266
REMARK  109  A    between atoms: _269  and  _271
REMARK  110  A    between atoms: _271  and  _272
REMARK  111  A    between atoms: _271  and  _274
REMARK  112  A    between atoms: _274  and  _275
REMARK  113  A    between atoms: _278  and  _280
REMARK  114  A    between atoms: _280  and  _281
REMARK  115  A    between atoms: _280  and  _283
REMARK  116  A    between atoms: _283  and  _284
REMARK  117  A    between atoms: _287  and  _289
REMARK  118  A    between atoms: _289  and  _290
REMARK  119  A    between atoms: _292  and  _294
REMARK  120  A    between atoms: _294  and  _295
REMARK  121  A    between atoms: _298  and  _300
REMARK  122  A    between atoms: _300  and  _301
REMARK  123  A    between atoms: _300  and  _303
REMARK  124  A    between atoms: _303  and  _304
REMARK  125  A    between atoms: _307  and  _309
REMARK  126  A    between atoms: _309  and  _310
REMARK  127  A    between atoms: _309  and  _312
REMARK  128  A    between atoms: _312  and  _313
REMARK  129  A    between atoms: _316  and  _318
REMARK  130  A    between atoms: _318  and  _319
REMARK  131  A    between atoms: _318  and  _321
REMARK  132  A    between atoms: _321  and  _322
REMARK  133  A    between atoms: _325  and  _327
REMARK  134  A    between atoms: _327  and  _328
REMARK  135  A    between atoms: _327  and  _330
REMARK  136  A    between atoms: _333  and  _335
REMARK  137  A    between atoms: _335  and  _336
REMARK  138  A    between atoms: _335  and  _338
REMARK  139  A    between atoms: _338  and  _339
REMARK  140  A    between atoms: _339  and  _340
REMARK  141  A    between atoms: _340  and  _341
REMARK  142  A    between atoms: _341  and  _342
REMARK  143  A    between atoms: _346  and  _348
REMARK  144  A    between atoms: _348  and  _349
REMARK  145  A    between atoms: _348  and  _351
REMARK  146  A    between atoms: _351  and  _352
REMARK  147  A    between atoms: _352  and  _353
REMARK  148  A    between atoms: _355  and  _357
REMARK  149  A    between atoms: _357  and  _358
REMARK  150  A    between atoms: _357  and  _360
REMARK  151  A    between atoms: _360  and  _361
REMARK  152  A    between atoms: _364  and  _366
REMARK  153  A    between atoms: _366  and  _367
REMARK  154  A    between atoms: _369  and  _371
REMARK  155  A    between atoms: _371  and  _372
REMARK  156  A    between atoms: _374  and  _376
REMARK  157  A    between atoms: _376  and  _377
REMARK  158  A    between atoms: _376  and  _379
REMARK  159  A    between atoms: _379  and  _380
REMARK  160  A    between atoms: _383  and  _385
REMARK  161  A    between atoms: _385  and  _386
REMARK  162  A    between atoms: _388  and  _390
REMARK  163  A    between atoms: _390  and  _391
REMARK  164  A    between atoms: _393  and  _395
REMARK  165  A    between atoms: _395  and  _396
REMARK  166  A    between atoms: _395  and  _398
REMARK  167  A    between atoms: _398  and  _399
REMARK  168  A    between atoms: _405  and  _407
REMARK  169  A    between atoms: _407  and  _408
REMARK  170  A    between atoms: _407  and  _410
REMARK  171  A    between atoms: _410  and  _411
REMARK  172  A    between atoms: _414  and  _416
REMARK  173  A    between atoms: _416  and  _417
REMARK  174  A    between atoms: _416  and  _419
REMARK  175  A    between atoms: _422  and  _424
REMARK  176  A    between atoms: _424  and  _425
REMARK  177  A    between atoms: _424  and  _427
REMARK  178  A    between atoms: _427  and  _428
REMARK  179  A    between atoms: _431  and  _433
REMARK  180  A    between atoms: _433  and  _434
REMARK  181  A    between atoms: _433  and  _436
REMARK  182  A    between atoms: _436  and  _437
REMARK  183  A    between atoms: _441  and  _442
REMARK  184  A    between atoms: _447  and  _449
REMARK  185  A    between atoms: _449  and  _450
REMARK  186  A    between atoms: _449  and  _452
REMARK  187  A    between atoms: _455  and  _457
REMARK  188  A    between atoms: _457  and  _458
REMARK  189  A    between atoms: _457  and  _460
REMARK  190  A    between atoms: _460  and  _461
REMARK  191  A    between atoms: _466  and  _468
REMARK  192  A    between atoms: _468  and  _469
REMARK  193  A    between atoms: _468  and  _471
REMARK  194  A    between atoms: _471  and  _472
REMARK  195  A    between atoms: _475  and  _477
REMARK  196  A    between atoms: _477  and  _478
REMARK  197  A    between atoms: _477  and  _480
REMARK  198  A    between atoms: _480  and  _481
REMARK  199  A    between atoms: _484  and  _486
REMARK  200  A    between atoms: _486  and  _487
REMARK  201  A    between atoms: _489  and  _491
REMARK  202  A    between atoms: _491  and  _492
REMARK  203  A    between atoms: _491  and  _494
REMARK  204  A    between atoms: _494  and  _495
REMARK  205  A    between atoms: _495  and  _496
REMARK  206  A    between atoms: _496  and  _497
REMARK  207  A    between atoms: _506  and  _508
REMARK  208  A    between atoms: _508  and  _509
REMARK  209  A    between atoms: _508  and  _511
REMARK  210  A    between atoms: _511  and  _512
REMARK                            x       y       z     vdW  Elec       q    Type
REMARK                         _______ _______ _______ _____ _____    ______ ____
ROOT
ATOM      1  O   HOH     1      24.774  40.069  16.994  0.00  0.00    +0.000 OA
ENDROOT
TORSDOF 0
REMARK  Name = ../refined-set-2016/2i0a/2i0a_pocket.pdb
REMARK  210 active torsions:
REMARK  status: ('A' for Active; 'I' for Inactive)
REMARK    1  A    between atoms: _1  and  _3
REMARK    2  A    between atoms: _3  and  _4
REMARK    3  A    between atoms: _3  and  _6
REMARK    4  A    between atoms: _6  and  _7
REMARK    5  A    between atoms: _7  and  _8
REMARK    6  A    between atoms: _8  and  _9
REMARK    7  A    between atoms: _18  and  _20
REMARK    8  A    between atoms: _20  and  _21
REMARK    9  A    between atoms: _20  and  _23
REMARK   10  A    between atoms: _23  and  _24
REMARK   11  A    between atoms: _27  and  _29
REMARK   12  A    between atoms: _29  and  _30
REMARK   13  A    between atoms: _29  and  _32
REMARK   14  A    between atoms: _32  and  _33
REMARK   15  A    between atoms: _36  and  _38
REMARK   16  A    between atoms: _38  and  _39
REMARK   17  A    between atoms: _38  and  _41
REMARK   18  A    between atoms: _41  and  _42
REMARK   19  A    between atoms: _45  and  _47
REMARK   20  A    between atoms: _47  and  _48
REMARK   21  A    between atoms: _47  and  _50
REMARK   22  A    between atoms: _50  and  _51
REMARK   23  A    between atoms: _54  and  _56
REMARK   24  A    between atoms: _56  and  _57
REMARK   25  A    between atoms: _59  and  _61
REMARK   26  A    between atoms: _61  and  _62
REMARK   27  A    between atoms: _65  and  _67
REMARK   28  A    between atoms: _67  and  _68
REMARK   29  A    between atoms: _67  and  _70
REMARK   30  A    between atoms: _70  and  _71
REMARK   31  A    between atoms: _74  and  _76
REMARK   32  A    between atoms: _76  and  _77
REMARK   33  A    between atoms: _76  and  _79
REMARK   34  A    between atoms: _79  and  _80
REMARK   35  A    between atoms: _83  and  _85
REMARK   36  A    between atoms: _85  and  _86
REMARK   37  A    between atoms: _85  and  _88
REMARK   38  A    between atoms: _88  and  _89
REMARK   39  A    between atoms: _92  and  _94
REMARK   40  A    between atoms: _94  and  _95
REMARK   41  A    between atoms: _94  and  _97
REMARK   42  A    between atoms: _100  and  _102
REMARK   43  A    between atoms: _102  and  _103
REMARK   44  A    between atoms: _102  and  _105
REMARK   45  A    between atoms: _105  and  _106
REMARK   46  A    between atoms: _106  and  _107
REMARK   47  A    between atoms: _109  and  _111
REMARK   48  A    between atoms: _111  and  _112
REMARK   49  A    between atoms: _111  and  _114
REMARK   50  A    between atoms: _114  and  _115
REMARK   51  A    between atoms: _118  and  _120
REMARK   52  A    between atoms: _120  and  _121
REMARK   53  A    between atoms: _123  and  _125
REMARK   54  A    between atoms: _125  and  _126
REMARK   55  A    between atoms: _128  and  _130
REMARK   56  A    between atoms: _130  and  _131
REMARK   57  A    between atoms: _130  and  _133
REMARK   58  A    between atoms: _133  and  _134
REMARK   59  A    between atoms: _137  and  _139
REMARK   60  A    between atoms: _139  and  _140
REMARK   61  A    between atoms: _142  and  _144
REMARK   62  A    between atoms: _144  and  _145
REMARK   63  A    between atoms: _147  and  _149
REMARK   64  A    between atoms: _149  and  _150
REMARK   65  A    between atoms: _149  and  _152
REMARK   66  A    between atoms: _152  and  _153
REMARK   67  A    between atoms: _159  and  _161
REMARK   68  A    between atoms: _161  and  _162
REMARK   69  A    between atoms: _161  and  _164
REMARK   70  A    between atoms: _164  and  _165
REMARK   71  A    between atoms: _169  and  _170
REMARK   72  A    between atoms: _175  and  _177
REMARK   73  A    between atoms: _177  and  _178
REMARK   74  A    between atoms: _177  and  _180
REMARK   75  A    between atoms: _183  and  _185
REMARK   76  A    between atoms: _185  and  _186
REMARK   77  A    between atoms: _185  and  _188
REMARK   78  A    between atoms: _188  and  _189
REMARK   79  A    between atoms: _194  and  _196
REMARK   80  A    between atoms: _196  and  _197
REMARK   81  A    between atoms: _196  and  _199
REMARK   82  A    between atoms: _199  and  _200
REMARK   83  A    between atoms: _203  and  _205
REMARK   84  A    between atoms: _205  and  _206
REMARK   85  A    between atoms: _205  and  _208
REMARK   86  A    between atoms: _208  and  _209
REMARK   87  A    between atoms: _212  and  _214
REMARK   88  A    between atoms: _214  and  _215
REMARK   89  A    between atoms: _217  and  _219
REMARK   90  A    between atoms: _219  and  _220
REMARK   91  A    between atoms: _219  and  _222
REMARK   92  A    between atoms: _222  and  _223
REMARK   93  A    between atoms: _223  and  _224
REMARK   94  A    between atoms: _224  and  _225
REMARK   95  A    between atoms: _234  and  _236
REMARK   96  A    between atoms: _236  and  _237
REMARK   97  A    between atoms: _236  and  _239
REMARK   98  A    between atoms: _239  and  _240
REMARK   99  A    between atoms: _240  and  _241
REMARK  100  A    between atoms: _241  and  _242
REMARK  101  A    between atoms: _251  and  _253
REMARK  102  A    between atoms: _253  and  _254
REMARK  103  A    between atoms: _253  and  _256
REMARK  104  A    between atoms: _256  and  _257
REMARK  105  A    between atoms: _260  and  _262
REMARK  106  A    between atoms: _262  and  _263
REMARK  107  A    between atoms: _262  and  _265
REMARK  108  A    between atoms: _265  and  _266
REMARK  109  A    between atoms: _269  and  _271
REMARK  110  A    between atoms: _271  and  _272
REMARK  111  A    between atoms: _271  and  _274
REMARK  112  A    between atoms: _274  and  _275
REMARK  113  A    between atoms: _278  and  _280
REMARK  114  A    between atoms: _280  and  _281
REMARK  115  A    between atoms: _280  and  _283
REMARK  116  A    between atoms: _283  and  _284
REMARK  117  A    between atoms: _287  and  _289
REMARK  118  A    between atoms: _289  and  _290
REMARK  119  A    between atoms: _292  and  _294
REMARK  120  A    between atoms: _294  and  _295
REMARK  121  A    between atoms: _298  and  _300
REMARK  122  A    between atoms: _300  and  _301
REMARK  123  A    between atoms: _300  and  _303
REMARK  124  A    between atoms: _303  and  _304
REMARK  125  A    between atoms: _307  and  _309
REMARK  126  A    between atoms: _309  and  _310
REMARK  127  A    between atoms: _309  and  _312
REMARK  128  A    between atoms: _312  and  _313
REMARK  129  A    between atoms: _316  and  _318
REMARK  130  A    between atoms: _318  and  _319
REMARK  131  A    between atoms: _318  and  _321
REMARK  132  A    between atoms: _321  and  _322
REMARK  133  A    between atoms: _325  and  _327
REMARK  134  A    between atoms: _327  and  _328
REMARK  135  A    between atoms: _327  and  _330
REMARK  136  A    between atoms: _333  and  _335
REMARK  137  A    between atoms: _335  and  _336
REMARK  138  A    between atoms: _335  and  _338
REMARK  139  A    between atoms: _338  and  _339
REMARK  140  A    between atoms: _339  and  _340
REMARK  141  A    between atoms: _340  and  _341
REMARK  142  A    between atoms: _341  and  _342
REMARK  143  A    between atoms: _346  and  _348
REMARK  144  A    between atoms: _348  and  _349
REMARK  145  A    between atoms: _348  and  _351
REMARK  146  A    between atoms: _351  and  _352
REMARK  147  A    between atoms: _352  and  _353
REMARK  148  A    between atoms: _355  and  _357
REMARK  149  A    between atoms: _357  and  _358
REMARK  150  A    between atoms: _357  and  _360
REMARK  151  A    between atoms: _360  and  _361
REMARK  152  A    between atoms: _364  and  _366
REMARK  153  A    between atoms: _366  and  _367
REMARK  154  A    between atoms: _369  and  _371
REMARK  155  A    between atoms: _371  and  _372
REMARK  156  A    between atoms: _374  and  _376
REMARK  157  A    between atoms: _376  and  _377
REMARK  158  A    between atoms: _376  and  _379
REMARK  159  A    between atoms: _379  and  _380
REMARK  160  A    between atoms: _383  and  _385
REMARK  161  A    between atoms: _385  and  _386
REMARK  162  A    between atoms: _388  and  _390
REMARK  163  A    between atoms: _390  and  _391
REMARK  164  A    between atoms: _393  and  _395
REMARK  165  A    between atoms: _395  and  _396
REMARK  166  A    between atoms: _395  and  _398
REMARK  167  A    between atoms: _398  and  _399
REMARK  168  A    between atoms: _405  and  _407
REMARK  169  A    between atoms: _407  and  _408
REMARK  170  A    between atoms: _407  and  _410
REMARK  171  A    between atoms: _410  and  _411
REMARK  172  A    between atoms: _414  and  _416
REMARK  173  A    between atoms: _416  and  _417
REMARK  174  A    between atoms: _416  and  _419
REMARK  175  A    between atoms: _422  and  _424
REMARK  176  A    between atoms: _424  and  _425
REMARK  177  A    between atoms: _424  and  _427
REMARK  178  A    between atoms: _427  and  _428
REMARK  179  A    between atoms: _431  and  _433
REMARK  180  A    between atoms: _433  and  _434
REMARK  181  A    between atoms: _433  and  _436
REMARK  182  A    between atoms: _436  and  _437
REMARK  183  A    between atoms: _441  and  _442
REMARK  184  A    between atoms: _447  and  _449
REMARK  185  A    between atoms: _449  and  _450
REMARK  186  A    between atoms: _449  and  _452
REMARK  187  A    between atoms: _455  and  _457
REMARK  188  A    between atoms: _457  and  _458
REMARK  189  A    between atoms: _457  and  _460
REMARK  190  A    between atoms: _460  and  _461
REMARK  191  A    between atoms: _466  and  _468
REMARK  192  A    between atoms: _468  and  _469
REMARK  193  A    between atoms: _468  and  _471
REMARK  194  A    between atoms: _471  and  _472
REMARK  195  A    between atoms: _475  and  _477
REMARK  196  A    between atoms: _477  and  _478
REMARK  197  A    between atoms: _477  and  _480
REMARK  198  A    between atoms: _480  and  _481
REMARK  199  A    between atoms: _484  and  _486
REMARK  200  A    between atoms: _486  and  _487
REMARK  201  A    between atoms: _489  and  _491
REMARK  202  A    between atoms: _491  and  _492
REMARK  203  A    between atoms: _491  and  _494
REMARK  204  A    between atoms: _494  and  _495
REMARK  205  A    between atoms: _495  and  _496
REMARK  206  A    between atoms: _496  and  _497
REMARK  207  A    between atoms: _506  and  _508
REMARK  208  A    between atoms: _508  and  _509
REMARK  209  A    between atoms: _508  and  _511
REMARK  210  A    between atoms: _511  and  _512
REMARK                            x       y       z     vdW  Elec       q    Type
REMARK                         _______ _______ _______ _____ _____    ______ ____
ROOT
ATOM      1  O   HOH     1      23.446  20.522   5.832  0.00  0.00    +0.000 OA
ENDROOT
TORSDOF 0
REMARK  Name = ../refined-set-2016/2i0a/2i0a_pocket.pdb
REMARK  210 active torsions:
REMARK  status: ('A' for Active; 'I' for Inactive)
REMARK    1  A    between atoms: _1  and  _3
REMARK    2  A    between atoms: _3  and  _4
REMARK    3  A    between atoms: _3  and  _6
REMARK    4  A    between atoms: _6  and  _7
REMARK    5  A    between atoms: _7  and  _8
REMARK    6  A    between atoms: _8  and  _9
REMARK    7  A    between atoms: _18  and  _20
REMARK    8  A    between atoms: _20  and  _21
REMARK    9  A    between atoms: _20  and  _23
REMARK   10  A    between atoms: _23  and  _24
REMARK   11  A    between atoms: _27  and  _29
REMARK   12  A    between atoms: _29  and  _30
REMARK   13  A    between atoms: _29  and  _32
REMARK   14  A    between atoms: _32  and  _33
REMARK   15  A    between atoms: _36  and  _38
REMARK   16  A    between atoms: _38  and  _39
REMARK   17  A    between atoms: _38  and  _41
REMARK   18  A    between atoms: _41  and  _42
REMARK   19  A    between atoms: _45  and  _47
REMARK   20  A    between atoms: _47  and  _48
REMARK   21  A    between atoms: _47  and  _50
REMARK   22  A    between atoms: _50  and  _51
REMARK   23  A    between atoms: _54  and  _56
REMARK   24  A    between atoms: _56  and  _57
REMARK   25  A    between atoms: _59  and  _61
REMARK   26  A    between atoms: _61  and  _62
REMARK   27  A    between atoms: _65  and  _67
REMARK   28  A    between atoms: _67  and  _68
REMARK   29  A    between atoms: _67  and  _70
REMARK   30  A    between atoms: _70  and  _71
REMARK   31  A    between atoms: _74  and  _76
REMARK   32  A    between atoms: _76  and  _77
REMARK   33  A    between atoms: _76  and  _79
REMARK   34  A    between atoms: _79  and  _80
REMARK   35  A    between atoms: _83  and  _85
REMARK   36  A    between atoms: _85  and  _86
REMARK   37  A    between atoms: _85  and  _88
REMARK   38  A    between atoms: _88  and  _89
REMARK   39  A    between atoms: _92  and  _94
REMARK   40  A    between atoms: _94  and  _95
REMARK   41  A    between atoms: _94  and  _97
REMARK   42  A    between atoms: _100  and  _102
REMARK   43  A    between atoms: _102  and  _103
REMARK   44  A    between atoms: _102  and  _105
REMARK   45  A    between atoms: _105  and  _106
REMARK   46  A    between atoms: _106  and  _107
REMARK   47  A    between atoms: _109  and  _111
REMARK   48  A    between atoms: _111  and  _112
REMARK   49  A    between atoms: _111  and  _114
REMARK   50  A    between atoms: _114  and  _115
REMARK   51  A    between atoms: _118  and  _120
REMARK   52  A    between atoms: _120  and  _121
REMARK   53  A    between atoms: _123  and  _125
REMARK   54  A    between atoms: _125  and  _126
REMARK   55  A    between atoms: _128  and  _130
REMARK   56  A    between atoms: _130  and  _131
REMARK   57  A    between atoms: _130  and  _133
REMARK   58  A    between atoms: _133  and  _134
REMARK   59  A    between atoms: _137  and  _139
REMARK   60  A    between atoms: _139  and  _140
REMARK   61  A    between atoms: _142  and  _144
REMARK   62  A    between atoms: _144  and  _145
REMARK   63  A    between atoms: _147  and  _149
REMARK   64  A    between atoms: _149  and  _150
REMARK   65  A    between atoms: _149  and  _152
REMARK   66  A    between atoms: _152  and  _153
REMARK   67  A    between atoms: _159  and  _161
REMARK   68  A    between atoms: _161  and  _162
REMARK   69  A    between atoms: _161  and  _164
REMARK   70  A    between atoms: _164  and  _165
REMARK   71  A    between atoms: _169  and  _170
REMARK   72  A    between atoms: _175  and  _177
REMARK   73  A    between atoms: _177  and  _178
REMARK   74  A    between atoms: _177  and  _180
REMARK   75  A    between atoms: _183  and  _185
REMARK   76  A    between atoms: _185  and  _186
REMARK   77  A    between atoms: _185  and  _188
REMARK   78  A    between atoms: _188  and  _189
REMARK   79  A    between atoms: _194  and  _196
REMARK   80  A    between atoms: _196  and  _197
REMARK   81  A    between atoms: _196  and  _199
REMARK   82  A    between atoms: _199  and  _200
REMARK   83  A    between atoms: _203  and  _205
REMARK   84  A    between atoms: _205  and  _206
REMARK   85  A    between atoms: _205  and  _208
REMARK   86  A    between atoms: _208  and  _209
REMARK   87  A    between atoms: _212  and  _214
REMARK   88  A    between atoms: _214  and  _215
REMARK   89  A    between atoms: _217  and  _219
REMARK   90  A    between atoms: _219  and  _220
REMARK   91  A    between atoms: _219  and  _222
REMARK   92  A    between atoms: _222  and  _223
REMARK   93  A    between atoms: _223  and  _224
REMARK   94  A    between atoms: _224  and  _225
REMARK   95  A    between atoms: _234  and  _236
REMARK   96  A    between atoms: _236  and  _237
REMARK   97  A    between atoms: _236  and  _239
REMARK   98  A    between atoms: _239  and  _240
REMARK   99  A    between atoms: _240  and  _241
REMARK  100  A    between atoms: _241  and  _242
REMARK  101  A    between atoms: _251  and  _253
REMARK  102  A    between atoms: _253  and  _254
REMARK  103  A    between atoms: _253  and  _256
REMARK  104  A    between atoms: _256  and  _257
REMARK  105  A    between atoms: _260  and  _262
REMARK  106  A    between atoms: _262  and  _263
REMARK  107  A    between atoms: _262  and  _265
REMARK  108  A    between atoms: _265  and  _266
REMARK  109  A    between atoms: _269  and  _271
REMARK  110  A    between atoms: _271  and  _272
REMARK  111  A    between atoms: _271  and  _274
REMARK  112  A    between atoms: _274  and  _275
REMARK  113  A    between atoms: _278  and  _280
REMARK  114  A    between atoms: _280  and  _281
REMARK  115  A    between atoms: _280  and  _283
REMARK  116  A    between atoms: _283  and  _284
REMARK  117  A    between atoms: _287  and  _289
REMARK  118  A    between atoms: _289  and  _290
REMARK  119  A    between atoms: _292  and  _294
REMARK  120  A    between atoms: _294  and  _295
REMARK  121  A    between atoms: _298  and  _300
REMARK  122  A    between atoms: _300  and  _301
REMARK  123  A    between atoms: _300  and  _303
REMARK  124  A    between atoms: _303  and  _304
REMARK  125  A    between atoms: _307  and  _309
REMARK  126  A    between atoms: _309  and  _310
REMARK  127  A    between atoms: _309  and  _312
REMARK  128  A    between atoms: _312  and  _313
REMARK  129  A    between atoms: _316  and  _318
REMARK  130  A    between atoms: _318  and  _319
REMARK  131  A    between atoms: _318  and  _321
REMARK  132  A    between atoms: _321  and  _322
REMARK  133  A    between atoms: _325  and  _327
REMARK  134  A    between atoms: _327  and  _328
REMARK  135  A    between atoms: _327  and  _330
REMARK  136  A    between atoms: _333  and  _335
REMARK  137  A    between atoms: _335  and  _336
REMARK  138  A    between atoms: _335  and  _338
REMARK  139  A    between atoms: _338  and  _339
REMARK  140  A    between atoms: _339  and  _340
REMARK  141  A    between atoms: _340  and  _341
REMARK  142  A    between atoms: _341  and  _342
REMARK  143  A    between atoms: _346  and  _348
REMARK  144  A    between atoms: _348  and  _349
REMARK  145  A    between atoms: _348  and  _351
REMARK  146  A    between atoms: _351  and  _352
REMARK  147  A    between atoms: _352  and  _353
REMARK  148  A    between atoms: _355  and  _357
REMARK  149  A    between atoms: _357  and  _358
REMARK  150  A    between atoms: _357  and  _360
REMARK  151  A    between atoms: _360  and  _361
REMARK  152  A    between atoms: _364  and  _366
REMARK  153  A    between atoms: _366  and  _367
REMARK  154  A    between atoms: _369  and  _371
REMARK  155  A    between atoms: _371  and  _372
REMARK  156  A    between atoms: _374  and  _376
REMARK  157  A    between atoms: _376  and  _377
REMARK  158  A    between atoms: _376  and  _379
REMARK  159  A    between atoms: _379  and  _380
REMARK  160  A    between atoms: _383  and  _385
REMARK  161  A    between atoms: _385  and  _386
REMARK  162  A    between atoms: _388  and  _390
REMARK  163  A    between atoms: _390  and  _391
REMARK  164  A    between atoms: _393  and  _395
REMARK  165  A    between atoms: _395  and  _396
REMARK  166  A    between atoms: _395  and  _398
REMARK  167  A    between atoms: _398  and  _399
REMARK  168  A    between atoms: _405  and  _407
REMARK  169  A    between atoms: _407  and  _408
REMARK  170  A    between atoms: _407  and  _410
REMARK  171  A    between atoms: _410  and  _411
REMARK  172  A    between atoms: _414  and  _416
REMARK  173  A    between atoms: _416  and  _417
REMARK  174  A    between atoms: _416  and  _419
REMARK  175  A    between atoms: _422  and  _424
REMARK  176  A    between atoms: _424  and  _425
REMARK  177  A    between atoms: _424  and  _427
REMARK  178  A    between atoms: _427  and  _428
REMARK  179  A    between atoms: _431  and  _433
REMARK  180  A    between atoms: _433  and  _434
REMARK  181  A    between atoms: _433  and  _436
REMARK  182  A    between atoms: _436  and  _437
REMARK  183  A    between atoms: _441  and  _442
REMARK  184  A    between atoms: _447  and  _449
REMARK  185  A    between atoms: _449  and  _450
REMARK  186  A    between atoms: _449  and  _452
REMARK  187  A    between atoms: _455  and  _457
REMARK  188  A    between atoms: _457  and  _458
REMARK  189  A    between atoms: _457  and  _460
REMARK  190  A    between atoms: _460  and  _461
REMARK  191  A    between atoms: _466  and  _468
REMARK  192  A    between atoms: _468  and  _469
REMARK  193  A    between atoms: _468  and  _471
REMARK  194  A    between atoms: _471  and  _472
REMARK  195  A    between atoms: _475  and  _477
REMARK  196  A    between atoms: _477  and  _478
REMARK  197  A    between atoms: _477  and  _480
REMARK  198  A    between atoms: _480  and  _481
REMARK  199  A    between atoms: _484  and  _486
REMARK  200  A    between atoms: _486  and  _487
REMARK  201  A    between atoms: _489  and  _491
REMARK  202  A    between atoms: _491  and  _492
REMARK  203  A    between atoms: _491  and  _494
REMARK  204  A    between atoms: _494  and  _495
REMARK  205  A    between atoms: _495  and  _496
REMARK  206  A    between atoms: _496  and  _497
REMARK  207  A    between atoms: _506  and  _508
REMARK  208  A    between atoms: _508  and  _509
REMARK  209  A    between atoms: _508  and  _511
REMARK  210  A    between atoms: _511  and  _512
REMARK                            x       y       z     vdW  Elec       q    Type
REMARK                         _______ _______ _______ _____ _____    ______ ____
ROOT
ATOM      1  O   HOH     1      19.550  22.774  13.364  0.00  0.00    +0.000 OA
ENDROOT
TORSDOF 0
REMARK  Name = ../refined-set-2016/2i0a/2i0a_pocket.pdb
REMARK  210 active torsions:
REMARK  status: ('A' for Active; 'I' for Inactive)
REMARK    1  A    between atoms: _1  and  _3
REMARK    2  A    between atoms: _3  and  _4
REMARK    3  A    between atoms: _3  and  _6
REMARK    4  A    between atoms: _6  and  _7
REMARK    5  A    between atoms: _7  and  _8
REMARK    6  A    between atoms: _8  and  _9
REMARK    7  A    between atoms: _18  and  _20
REMARK    8  A    between atoms: _20  and  _21
REMARK    9  A    between atoms: _20  and  _23
REMARK   10  A    between atoms: _23  and  _24
REMARK   11  A    between atoms: _27  and  _29
REMARK   12  A    between atoms: _29  and  _30
REMARK   13  A    between atoms: _29  and  _32
REMARK   14  A    between atoms: _32  and  _33
REMARK   15  A    between atoms: _36  and  _38
REMARK   16  A    between atoms: _38  and  _39
REMARK   17  A    between atoms: _38  and  _41
REMARK   18  A    between atoms: _41  and  _42
REMARK   19  A    between atoms: _45  and  _47
REMARK   20  A    between atoms: _47  and  _48
REMARK   21  A    between atoms: _47  and  _50
REMARK   22  A    between atoms: _50  and  _51
REMARK   23  A    between atoms: _54  and  _56
REMARK   24  A    between atoms: _56  and  _57
REMARK   25  A    between atoms: _59  and  _61
REMARK   26  A    between atoms: _61  and  _62
REMARK   27  A    between atoms: _65  and  _67
REMARK   28  A    between atoms: _67  and  _68
REMARK   29  A    between atoms: _67  and  _70
REMARK   30  A    between atoms: _70  and  _71
REMARK   31  A    between atoms: _74  and  _76
REMARK   32  A    between atoms: _76  and  _77
REMARK   33  A    between atoms: _76  and  _79
REMARK   34  A    between atoms: _79  and  _80
REMARK   35  A    between atoms: _83  and  _85
REMARK   36  A    between atoms: _85  and  _86
REMARK   37  A    between atoms: _85  and  _88
REMARK   38  A    between atoms: _88  and  _89
REMARK   39  A    between atoms: _92  and  _94
REMARK   40  A    between atoms: _94  and  _95
REMARK   41  A    between atoms: _94  and  _97
REMARK   42  A    between atoms: _100  and  _102
REMARK   43  A    between atoms: _102  and  _103
REMARK   44  A    between atoms: _102  and  _105
REMARK   45  A    between atoms: _105  and  _106
REMARK   46  A    between atoms: _106  and  _107
REMARK   47  A    between atoms: _109  and  _111
REMARK   48  A    between atoms: _111  and  _112
REMARK   49  A    between atoms: _111  and  _114
REMARK   50  A    between atoms: _114  and  _115
REMARK   51  A    between atoms: _118  and  _120
REMARK   52  A    between atoms: _120  and  _121
REMARK   53  A    between atoms: _123  and  _125
REMARK   54  A    between atoms: _125  and  _126
REMARK   55  A    between atoms: _128  and  _130
REMARK   56  A    between atoms: _130  and  _131
REMARK   57  A    between atoms: _130  and  _133
REMARK   58  A    between atoms: _133  and  _134
REMARK   59  A    between atoms: _137  and  _139
REMARK   60  A    between atoms: _139  and  _140
REMARK   61  A    between atoms: _142  and  _144
REMARK   62  A    between atoms: _144  and  _145
REMARK   63  A    between atoms: _147  and  _149
REMARK   64  A    between atoms: _149  and  _150
REMARK   65  A    between atoms: _149  and  _152
REMARK   66  A    between atoms: _152  and  _153
REMARK   67  A    between atoms: _159  and  _161
REMARK   68  A    between atoms: _161  and  _162
REMARK   69  A    between atoms: _161  and  _164
REMARK   70  A    between atoms: _164  and  _165
REMARK   71  A    between atoms: _169  and  _170
REMARK   72  A    between atoms: _175  and  _177
REMARK   73  A    between atoms: _177  and  _178
REMARK   74  A    between atoms: _177  and  _180
REMARK   75  A    between atoms: _183  and  _185
REMARK   76  A    between atoms: _185  and  _186
REMARK   77  A    between atoms: _185  and  _188
REMARK   78  A    between atoms: _188  and  _189
REMARK   79  A    between atoms: _194  and  _196
REMARK   80  A    between atoms: _196  and  _197
REMARK   81  A    between atoms: _196  and  _199
REMARK   82  A    between atoms: _199  and  _200
REMARK   83  A    between atoms: _203  and  _205
REMARK   84  A    between atoms: _205  and  _206
REMARK   85  A    between atoms: _205  and  _208
REMARK   86  A    between atoms: _208  and  _209
REMARK   87  A    between atoms: _212  and  _214
REMARK   88  A    between atoms: _214  and  _215
REMARK   89  A    between atoms: _217  and  _219
REMARK   90  A    between atoms: _219  and  _220
REMARK   91  A    between atoms: _219  and  _222
REMARK   92  A    between atoms: _222  and  _223
REMARK   93  A    between atoms: _223  and  _224
REMARK   94  A    between atoms: _224  and  _225
REMARK   95  A    between atoms: _234  and  _236
REMARK   96  A    between atoms: _236  and  _237
REMARK   97  A    between atoms: _236  and  _239
REMARK   98  A    between atoms: _239  and  _240
REMARK   99  A    between atoms: _240  and  _241
REMARK  100  A    between atoms: _241  and  _242
REMARK  101  A    between atoms: _251  and  _253
REMARK  102  A    between atoms: _253  and  _254
REMARK  103  A    between atoms: _253  and  _256
REMARK  104  A    between atoms: _256  and  _257
REMARK  105  A    between atoms: _260  and  _262
REMARK  106  A    between atoms: _262  and  _263
REMARK  107  A    between atoms: _262  and  _265
REMARK  108  A    between atoms: _265  and  _266
REMARK  109  A    between atoms: _269  and  _271
REMARK  110  A    between atoms: _271  and  _272
REMARK  111  A    between atoms: _271  and  _274
REMARK  112  A    between atoms: _274  and  _275
REMARK  113  A    between atoms: _278  and  _280
REMARK  114  A    between atoms: _280  and  _281
REMARK  115  A    between atoms: _280  and  _283
REMARK  116  A    between atoms: _283  and  _284
REMARK  117  A    between atoms: _287  and  _289
REMARK  118  A    between atoms: _289  and  _290
REMARK  119  A    between atoms: _292  and  _294
REMARK  120  A    between atoms: _294  and  _295
REMARK  121  A    between atoms: _298  and  _300
REMARK  122  A    between atoms: _300  and  _301
REMARK  123  A    between atoms: _300  and  _303
REMARK  124  A    between atoms: _303  and  _304
REMARK  125  A    between atoms: _307  and  _309
REMARK  126  A    between atoms: _309  and  _310
REMARK  127  A    between atoms: _309  and  _312
REMARK  128  A    between atoms: _312  and  _313
REMARK  129  A    between atoms: _316  and  _318
REMARK  130  A    between atoms: _318  and  _319
REMARK  131  A    between atoms: _318  and  _321
REMARK  132  A    between atoms: _321  and  _322
REMARK  133  A    between atoms: _325  and  _327
REMARK  134  A    between atoms: _327  and  _328
REMARK  135  A    between atoms: _327  and  _330
REMARK  136  A    between atoms: _333  and  _335
REMARK  137  A    between atoms: _335  and  _336
REMARK  138  A    between atoms: _335  and  _338
REMARK  139  A    between atoms: _338  and  _339
REMARK  140  A    between atoms: _339  and  _340
REMARK  141  A    between atoms: _340  and  _341
REMARK  142  A    between atoms: _341  and  _342
REMARK  143  A    between atoms: _346  and  _348
REMARK  144  A    between atoms: _348  and  _349
REMARK  145  A    between atoms: _348  and  _351
REMARK  146  A    between atoms: _351  and  _352
REMARK  147  A    between atoms: _352  and  _353
REMARK  148  A    between atoms: _355  and  _357
REMARK  149  A    between atoms: _357  and  _358
REMARK  150  A    between atoms: _357  and  _360
REMARK  151  A    between atoms: _360  and  _361
REMARK  152  A    between atoms: _364  and  _366
REMARK  153  A    between atoms: _366  and  _367
REMARK  154  A    between atoms: _369  and  _371
REMARK  155  A    between atoms: _371  and  _372
REMARK  156  A    between atoms: _374  and  _376
REMARK  157  A    between atoms: _376  and  _377
REMARK  158  A    between atoms: _376  and  _379
REMARK  159  A    between atoms: _379  and  _380
REMARK  160  A    between atoms: _383  and  _385
REMARK  161  A    between atoms: _385  and  _386
REMARK  162  A    between atoms: _388  and  _390
REMARK  163  A    between atoms: _390  and  _391
REMARK  164  A    between atoms: _393  and  _395
REMARK  165  A    between atoms: _395  and  _396
REMARK  166  A    between atoms: _395  and  _398
REMARK  167  A    between atoms: _398  and  _399
REMARK  168  A    between atoms: _405  and  _407
REMARK  169  A    between atoms: _407  and  _408
REMARK  170  A    between atoms: _407  and  _410
REMARK  171  A    between atoms: _410  and  _411
REMARK  172  A    between atoms: _414  and  _416
REMARK  173  A    between atoms: _416  and  _417
REMARK  174  A    between atoms: _416  and  _419
REMARK  175  A    between atoms: _422  and  _424
REMARK  176  A    between atoms: _424  and  _425
REMARK  177  A    between atoms: _424  and  _427
REMARK  178  A    between atoms: _427  and  _428
REMARK  179  A    between atoms: _431  and  _433
REMARK  180  A    between atoms: _433  and  _434
REMARK  181  A    between atoms: _433  and  _436
REMARK  182  A    between atoms: _436  and  _437
REMARK  183  A    between atoms: _441  and  _442
REMARK  184  A    between atoms: _447  and  _449
REMARK  185  A    between atoms: _449  and  _450
REMARK  186  A    between atoms: _449  and  _452
REMARK  187  A    between atoms: _455  and  _457
REMARK  188  A    between atoms: _457  and  _458
REMARK  189  A    between atoms: _457  and  _460
REMARK  190  A    between atoms: _460  and  _461
REMARK  191  A    between atoms: _466  and  _468
REMARK  192  A    between atoms: _468  and  _469
REMARK  193  A    between atoms: _468  and  _471
REMARK  194  A    between atoms: _471  and  _472
REMARK  195  A    between atoms: _475  and  _477
REMARK  196  A    between atoms: _477  and  _478
REMARK  197  A    between atoms: _477  and  _480
REMARK  198  A    between atoms: _480  and  _481
REMARK  199  A    between atoms: _484  and  _486
REMARK  200  A    between atoms: _486  and  _487
REMARK  201  A    between atoms: _489  and  _491
REMARK  202  A    between atoms: _491  and  _492
REMARK  203  A    between atoms: _491  and  _494
REMARK  204  A    between atoms: _494  and  _495
REMARK  205  A    between atoms: _495  and  _496
REMARK  206  A    between atoms: _496  and  _497
REMARK  207  A    between atoms: _506  and  _508
REMARK  208  A    between atoms: _508  and  _509
REMARK  209  A    between atoms: _508  and  _511
REMARK  210  A    between atoms: _511  and  _512
REMARK                            x       y       z     vdW  Elec       q    Type
REMARK                         _______ _______ _______ _____ _____    ______ ____
ROOT
ATOM      1  O   HOH     1      20.207  21.359  15.682  0.00  0.00    +0.000 OA
ENDROOT
TORSDOF 0
REMARK  Name = ../refined-set-2016/2i0a/2i0a_pocket.pdb
REMARK  210 active torsions:
REMARK  status: ('A' for Active; 'I' for Inactive)
REMARK    1  A    between atoms: _1  and  _3
REMARK    2  A    between atoms: _3  and  _4
REMARK    3  A    between atoms: _3  and  _6
REMARK    4  A    between atoms: _6  and  _7
REMARK    5  A    between atoms: _7  and  _8
REMARK    6  A    between atoms: _8  and  _9
REMARK    7  A    between atoms: _18  and  _20
REMARK    8  A    between atoms: _20  and  _21
REMARK    9  A    between atoms: _20  and  _23
REMARK   10  A    between atoms: _23  and  _24
REMARK   11  A    between atoms: _27  and  _29
REMARK   12  A    between atoms: _29  and  _30
REMARK   13  A    between atoms: _29  and  _32
REMARK   14  A    between atoms: _32  and  _33
REMARK   15  A    between atoms: _36  and  _38
REMARK   16  A    between atoms: _38  and  _39
REMARK   17  A    between atoms: _38  and  _41
REMARK   18  A    between atoms: _41  and  _42
REMARK   19  A    between atoms: _45  and  _47
REMARK   20  A    between atoms: _47  and  _48
REMARK   21  A    between atoms: _47  and  _50
REMARK   22  A    between atoms: _50  and  _51
REMARK   23  A    between atoms: _54  and  _56
REMARK   24  A    between atoms: _56  and  _57
REMARK   25  A    between atoms: _59  and  _61
REMARK   26  A    between atoms: _61  and  _62
REMARK   27  A    between atoms: _65  and  _67
REMARK   28  A    between atoms: _67  and  _68
REMARK   29  A    between atoms: _67  and  _70
REMARK   30  A    between atoms: _70  and  _71
REMARK   31  A    between atoms: _74  and  _76
REMARK   32  A    between atoms: _76  and  _77
REMARK   33  A    between atoms: _76  and  _79
REMARK   34  A    between atoms: _79  and  _80
REMARK   35  A    between atoms: _83  and  _85
REMARK   36  A    between atoms: _85  and  _86
REMARK   37  A    between atoms: _85  and  _88
REMARK   38  A    between atoms: _88  and  _89
REMARK   39  A    between atoms: _92  and  _94
REMARK   40  A    between atoms: _94  and  _95
REMARK   41  A    between atoms: _94  and  _97
REMARK   42  A    between atoms: _100  and  _102
REMARK   43  A    between atoms: _102  and  _103
REMARK   44  A    between atoms: _102  and  _105
REMARK   45  A    between atoms: _105  and  _106
REMARK   46  A    between atoms: _106  and  _107
REMARK   47  A    between atoms: _109  and  _111
REMARK   48  A    between atoms: _111  and  _112
REMARK   49  A    between atoms: _111  and  _114
REMARK   50  A    between atoms: _114  and  _115
REMARK   51  A    between atoms: _118  and  _120
REMARK   52  A    between atoms: _120  and  _121
REMARK   53  A    between atoms: _123  and  _125
REMARK   54  A    between atoms: _125  and  _126
REMARK   55  A    between atoms: _128  and  _130
REMARK   56  A    between atoms: _130  and  _131
REMARK   57  A    between atoms: _130  and  _133
REMARK   58  A    between atoms: _133  and  _134
REMARK   59  A    between atoms: _137  and  _139
REMARK   60  A    between atoms: _139  and  _140
REMARK   61  A    between atoms: _142  and  _144
REMARK   62  A    between atoms: _144  and  _145
REMARK   63  A    between atoms: _147  and  _149
REMARK   64  A    between atoms: _149  and  _150
REMARK   65  A    between atoms: _149  and  _152
REMARK   66  A    between atoms: _152  and  _153
REMARK   67  A    between atoms: _159  and  _161
REMARK   68  A    between atoms: _161  and  _162
REMARK   69  A    between atoms: _161  and  _164
REMARK   70  A    between atoms: _164  and  _165
REMARK   71  A    between atoms: _169  and  _170
REMARK   72  A    between atoms: _175  and  _177
REMARK   73  A    between atoms: _177  and  _178
REMARK   74  A    between atoms: _177  and  _180
REMARK   75  A    between atoms: _183  and  _185
REMARK   76  A    between atoms: _185  and  _186
REMARK   77  A    between atoms: _185  and  _188
REMARK   78  A    between atoms: _188  and  _189
REMARK   79  A    between atoms: _194  and  _196
REMARK   80  A    between atoms: _196  and  _197
REMARK   81  A    between atoms: _196  and  _199
REMARK   82  A    between atoms: _199  and  _200
REMARK   83  A    between atoms: _203  and  _205
REMARK   84  A    between atoms: _205  and  _206
REMARK   85  A    between atoms: _205  and  _208
REMARK   86  A    between atoms: _208  and  _209
REMARK   87  A    between atoms: _212  and  _214
REMARK   88  A    between atoms: _214  and  _215
REMARK   89  A    between atoms: _217  and  _219
REMARK   90  A    between atoms: _219  and  _220
REMARK   91  A    between atoms: _219  and  _222
REMARK   92  A    between atoms: _222  and  _223
REMARK   93  A    between atoms: _223  and  _224
REMARK   94  A    between atoms: _224  and  _225
REMARK   95  A    between atoms: _234  and  _236
REMARK   96  A    between atoms: _236  and  _237
REMARK   97  A    between atoms: _236  and  _239
REMARK   98  A    between atoms: _239  and  _240
REMARK   99  A    between atoms: _240  and  _241
REMARK  100  A    between atoms: _241  and  _242
REMARK  101  A    between atoms: _251  and  _253
REMARK  102  A    between atoms: _253  and  _254
REMARK  103  A    between atoms: _253  and  _256
REMARK  104  A    between atoms: _256  and  _257
REMARK  105  A    between atoms: _260  and  _262
REMARK  106  A    between atoms: _262  and  _263
REMARK  107  A    between atoms: _262  and  _265
REMARK  108  A    between atoms: _265  and  _266
REMARK  109  A    between atoms: _269  and  _271
REMARK  110  A    between atoms: _271  and  _272
REMARK  111  A    between atoms: _271  and  _274
REMARK  112  A    between atoms: _274  and  _275
REMARK  113  A    between atoms: _278  and  _280
REMARK  114  A    between atoms: _280  and  _281
REMARK  115  A    between atoms: _280  and  _283
REMARK  116  A    between atoms: _283  and  _284
REMARK  117  A    between atoms: _287  and  _289
REMARK  118  A    between atoms: _289  and  _290
REMARK  119  A    between atoms: _292  and  _294
REMARK  120  A    between atoms: _294  and  _295
REMARK  121  A    between atoms: _298  and  _300
REMARK  122  A    between atoms: _300  and  _301
REMARK  123  A    between atoms: _300  and  _303
REMARK  124  A    between atoms: _303  and  _304
REMARK  125  A    between atoms: _307  and  _309
REMARK  126  A    between atoms: _309  and  _310
REMARK  127  A    between atoms: _309  and  _312
REMARK  128  A    between atoms: _312  and  _313
REMARK  129  A    between atoms: _316  and  _318
REMARK  130  A    between atoms: _318  and  _319
REMARK  131  A    between atoms: _318  and  _321
REMARK  132  A    between atoms: _321  and  _322
REMARK  133  A    between atoms: _325  and  _327
REMARK  134  A    between atoms: _327  and  _328
REMARK  135  A    between atoms: _327  and  _330
REMARK  136  A    between atoms: _333  and  _335
REMARK  137  A    between atoms: _335  and  _336
REMARK  138  A    between atoms: _335  and  _338
REMARK  139  A    between atoms: _338  and  _339
REMARK  140  A    between atoms: _339  and  _340
REMARK  141  A    between atoms: _340  and  _341
REMARK  142  A    between atoms: _341  and  _342
REMARK  143  A    between atoms: _346  and  _348
REMARK  144  A    between atoms: _348  and  _349
REMARK  145  A    between atoms: _348  and  _351
REMARK  146  A    between atoms: _351  and  _352
REMARK  147  A    between atoms: _352  and  _353
REMARK  148  A    between atoms: _355  and  _357
REMARK  149  A    between atoms: _357  and  _358
REMARK  150  A    between atoms: _357  and  _360
REMARK  151  A    between atoms: _360  and  _361
REMARK  152  A    between atoms: _364  and  _366
REMARK  153  A    between atoms: _366  and  _367
REMARK  154  A    between atoms: _369  and  _371
REMARK  155  A    between atoms: _371  and  _372
REMARK  156  A    between atoms: _374  and  _376
REMARK  157  A    between atoms: _376  and  _377
REMARK  158  A    between atoms: _376  and  _379
REMARK  159  A    between atoms: _379  and  _380
REMARK  160  A    between atoms: _383  and  _385
REMARK  161  A    between atoms: _385  and  _386
REMARK  162  A    between atoms: _388  and  _390
REMARK  163  A    between atoms: _390  and  _391
REMARK  164  A    between atoms: _393  and  _395
REMARK  165  A    between atoms: _395  and  _396
REMARK  166  A    between atoms: _395  and  _398
REMARK  167  A    between atoms: _398  and  _399
REMARK  168  A    between atoms: _405  and  _407
REMARK  169  A    between atoms: _407  and  _408
REMARK  170  A    between atoms: _407  and  _410
REMARK  171  A    between atoms: _410  and  _411
REMARK  172  A    between atoms: _414  and  _416
REMARK  173  A    between atoms: _416  and  _417
REMARK  174  A    between atoms: _416  and  _419
REMARK  175  A    between atoms: _422  and  _424
REMARK  176  A    between atoms: _424  and  _425
REMARK  177  A    between atoms: _424  and  _427
REMARK  178  A    between atoms: _427  and  _428
REMARK  179  A    between atoms: _431  and  _433
REMARK  180  A    between atoms: _433  and  _434
REMARK  181  A    between atoms: _433  and  _436
REMARK  182  A    between atoms: _436  and  _437
REMARK  183  A    between atoms: _441  and  _442
REMARK  184  A    between atoms: _447  and  _449
REMARK  185  A    between atoms: _449  and  _450
REMARK  186  A    between atoms: _449  and  _452
REMARK  187  A    between atoms: _455  and  _457
REMARK  188  A    between atoms: _457  and  _458
REMARK  189  A    between atoms: _457  and  _460
REMARK  190  A    between atoms: _460  and  _461
REMARK  191  A    between atoms: _466  and  _468
REMARK  192  A    between atoms: _468  and  _469
REMARK  193  A    between atoms: _468  and  _471
REMARK  194  A    between atoms: _471  and  _472
REMARK  195  A    between atoms: _475  and  _477
REMARK  196  A    between atoms: _477  and  _478
REMARK  197  A    between atoms: _477  and  _480
REMARK  198  A    between atoms: _480  and  _481
REMARK  199  A    between atoms: _484  and  _486
REMARK  200  A    between atoms: _486  and  _487
REMARK  201  A    between atoms: _489  and  _491
REMARK  202  A    between atoms: _491  and  _492
REMARK  203  A    between atoms: _491  and  _494
REMARK  204  A    between atoms: _494  and  _495
REMARK  205  A    between atoms: _495  and  _496
REMARK  206  A    between atoms: _496  and  _497
REMARK  207  A    between atoms: _506  and  _508
REMARK  208  A    between atoms: _508  and  _509
REMARK  209  A    between atoms: _508  and  _511
REMARK  210  A    between atoms: _511  and  _512
REMARK                            x       y       z     vdW  Elec       q    Type
REMARK                         _______ _______ _______ _____ _____    ______ ____
ROOT
ATOM      1  O   HOH     1      14.947  33.398   5.183  0.00  0.00    +0.000 OA
ENDROOT
TORSDOF 0
REMARK  Name = ../refined-set-2016/2i0a/2i0a_pocket.pdb
REMARK  210 active torsions:
REMARK  status: ('A' for Active; 'I' for Inactive)
REMARK    1  A    between atoms: _1  and  _3
REMARK    2  A    between atoms: _3  and  _4
REMARK    3  A    between atoms: _3  and  _6
REMARK    4  A    between atoms: _6  and  _7
REMARK    5  A    between atoms: _7  and  _8
REMARK    6  A    between atoms: _8  and  _9
REMARK    7  A    between atoms: _18  and  _20
REMARK    8  A    between atoms: _20  and  _21
REMARK    9  A    between atoms: _20  and  _23
REMARK   10  A    between atoms: _23  and  _24
REMARK   11  A    between atoms: _27  and  _29
REMARK   12  A    between atoms: _29  and  _30
REMARK   13  A    between atoms: _29  and  _32
REMARK   14  A    between atoms: _32  and  _33
REMARK   15  A    between atoms: _36  and  _38
REMARK   16  A    between atoms: _38  and  _39
REMARK   17  A    between atoms: _38  and  _41
REMARK   18  A    between atoms: _41  and  _42
REMARK   19  A    between atoms: _45  and  _47
REMARK   20  A    between atoms: _47  and  _48
REMARK   21  A    between atoms: _47  and  _50
REMARK   22  A    between atoms: _50  and  _51
REMARK   23  A    between atoms: _54  and  _56
REMARK   24  A    between atoms: _56  and  _57
REMARK   25  A    between atoms: _59  and  _61
REMARK   26  A    between atoms: _61  and  _62
REMARK   27  A    between atoms: _65  and  _67
REMARK   28  A    between atoms: _67  and  _68
REMARK   29  A    between atoms: _67  and  _70
REMARK   30  A    between atoms: _70  and  _71
REMARK   31  A    between atoms: _74  and  _76
REMARK   32  A    between atoms: _76  and  _77
REMARK   33  A    between atoms: _76  and  _79
REMARK   34  A    between atoms: _79  and  _80
REMARK   35  A    between atoms: _83  and  _85
REMARK   36  A    between atoms: _85  and  _86
REMARK   37  A    between atoms: _85  and  _88
REMARK   38  A    between atoms: _88  and  _89
REMARK   39  A    between atoms: _92  and  _94
REMARK   40  A    between atoms: _94  and  _95
REMARK   41  A    between atoms: _94  and  _97
REMARK   42  A    between atoms: _100  and  _102
REMARK   43  A    between atoms: _102  and  _103
REMARK   44  A    between atoms: _102  and  _105
REMARK   45  A    between atoms: _105  and  _106
REMARK   46  A    between atoms: _106  and  _107
REMARK   47  A    between atoms: _109  and  _111
REMARK   48  A    between atoms: _111  and  _112
REMARK   49  A    between atoms: _111  and  _114
REMARK   50  A    between atoms: _114  and  _115
REMARK   51  A    between atoms: _118  and  _120
REMARK   52  A    between atoms: _120  and  _121
REMARK   53  A    between atoms: _123  and  _125
REMARK   54  A    between atoms: _125  and  _126
REMARK   55  A    between atoms: _128  and  _130
REMARK   56  A    between atoms: _130  and  _131
REMARK   57  A    between atoms: _130  and  _133
REMARK   58  A    between atoms: _133  and  _134
REMARK   59  A    between atoms: _137  and  _139
REMARK   60  A    between atoms: _139  and  _140
REMARK   61  A    between atoms: _142  and  _144
REMARK   62  A    between atoms: _144  and  _145
REMARK   63  A    between atoms: _147  and  _149
REMARK   64  A    between atoms: _149  and  _150
REMARK   65  A    between atoms: _149  and  _152
REMARK   66  A    between atoms: _152  and  _153
REMARK   67  A    between atoms: _159  and  _161
REMARK   68  A    between atoms: _161  and  _162
REMARK   69  A    between atoms: _161  and  _164
REMARK   70  A    between atoms: _164  and  _165
REMARK   71  A    between atoms: _169  and  _170
REMARK   72  A    between atoms: _175  and  _177
REMARK   73  A    between atoms: _177  and  _178
REMARK   74  A    between atoms: _177  and  _180
REMARK   75  A    between atoms: _183  and  _185
REMARK   76  A    between atoms: _185  and  _186
REMARK   77  A    between atoms: _185  and  _188
REMARK   78  A    between atoms: _188  and  _189
REMARK   79  A    between atoms: _194  and  _196
REMARK   80  A    between atoms: _196  and  _197
REMARK   81  A    between atoms: _196  and  _199
REMARK   82  A    between atoms: _199  and  _200
REMARK   83  A    between atoms: _203  and  _205
REMARK   84  A    between atoms: _205  and  _206
REMARK   85  A    between atoms: _205  and  _208
REMARK   86  A    between atoms: _208  and  _209
REMARK   87  A    between atoms: _212  and  _214
REMARK   88  A    between atoms: _214  and  _215
REMARK   89  A    between atoms: _217  and  _219
REMARK   90  A    between atoms: _219  and  _220
REMARK   91  A    between atoms: _219  and  _222
REMARK   92  A    between atoms: _222  and  _223
REMARK   93  A    between atoms: _223  and  _224
REMARK   94  A    between atoms: _224  and  _225
REMARK   95  A    between atoms: _234  and  _236
REMARK   96  A    between atoms: _236  and  _237
REMARK   97  A    between atoms: _236  and  _239
REMARK   98  A    between atoms: _239  and  _240
REMARK   99  A    between atoms: _240  and  _241
REMARK  100  A    between atoms: _241  and  _242
REMARK  101  A    between atoms: _251  and  _253
REMARK  102  A    between atoms: _253  and  _254
REMARK  103  A    between atoms: _253  and  _256
REMARK  104  A    between atoms: _256  and  _257
REMARK  105  A    between atoms: _260  and  _262
REMARK  106  A    between atoms: _262  and  _263
REMARK  107  A    between atoms: _262  and  _265
REMARK  108  A    between atoms: _265  and  _266
REMARK  109  A    between atoms: _269  and  _271
REMARK  110  A    between atoms: _271  and  _272
REMARK  111  A    between atoms: _271  and  _274
REMARK  112  A    between atoms: _274  and  _275
REMARK  113  A    between atoms: _278  and  _280
REMARK  114  A    between atoms: _280  and  _281
REMARK  115  A    between atoms: _280  and  _283
REMARK  116  A    between atoms: _283  and  _284
REMARK  117  A    between atoms: _287  and  _289
REMARK  118  A    between atoms: _289  and  _290
REMARK  119  A    between atoms: _292  and  _294
REMARK  120  A    between atoms: _294  and  _295
REMARK  121  A    between atoms: _298  and  _300
REMARK  122  A    between atoms: _300  and  _301
REMARK  123  A    between atoms: _300  and  _303
REMARK  124  A    between atoms: _303  and  _304
REMARK  125  A    between atoms: _307  and  _309
REMARK  126  A    between atoms: _309  and  _310
REMARK  127  A    between atoms: _309  and  _312
REMARK  128  A    between atoms: _312  and  _313
REMARK  129  A    between atoms: _316  and  _318
REMARK  130  A    between atoms: _318  and  _319
REMARK  131  A    between atoms: _318  and  _321
REMARK  132  A    between atoms: _321  and  _322
REMARK  133  A    between atoms: _325  and  _327
REMARK  134  A    between atoms: _327  and  _328
REMARK  135  A    between atoms: _327  and  _330
REMARK  136  A    between atoms: _333  and  _335
REMARK  137  A    between atoms: _335  and  _336
REMARK  138  A    between atoms: _335  and  _338
REMARK  139  A    between atoms: _338  and  _339
REMARK  140  A    between atoms: _339  and  _340
REMARK  141  A    between atoms: _340  and  _341
REMARK  142  A    between atoms: _341  and  _342
REMARK  143  A    between atoms: _346  and  _348
REMARK  144  A    between atoms: _348  and  _349
REMARK  145  A    between atoms: _348  and  _351
REMARK  146  A    between atoms: _351  and  _352
REMARK  147  A    between atoms: _352  and  _353
REMARK  148  A    between atoms: _355  and  _357
REMARK  149  A    between atoms: _357  and  _358
REMARK  150  A    between atoms: _357  and  _360
REMARK  151  A    between atoms: _360  and  _361
REMARK  152  A    between atoms: _364  and  _366
REMARK  153  A    between atoms: _366  and  _367
REMARK  154  A    between atoms: _369  and  _371
REMARK  155  A    between atoms: _371  and  _372
REMARK  156  A    between atoms: _374  and  _376
REMARK  157  A    between atoms: _376  and  _377
REMARK  158  A    between atoms: _376  and  _379
REMARK  159  A    between atoms: _379  and  _380
REMARK  160  A    between atoms: _383  and  _385
REMARK  161  A    between atoms: _385  and  _386
REMARK  162  A    between atoms: _388  and  _390
REMARK  163  A    between atoms: _390  and  _391
REMARK  164  A    between atoms: _393  and  _395
REMARK  165  A    between atoms: _395  and  _396
REMARK  166  A    between atoms: _395  and  _398
REMARK  167  A    between atoms: _398  and  _399
REMARK  168  A    between atoms: _405  and  _407
REMARK  169  A    between atoms: _407  and  _408
REMARK  170  A    between atoms: _407  and  _410
REMARK  171  A    between atoms: _410  and  _411
REMARK  172  A    between atoms: _414  and  _416
REMARK  173  A    between atoms: _416  and  _417
REMARK  174  A    between atoms: _416  and  _419
REMARK  175  A    between atoms: _422  and  _424
REMARK  176  A    between atoms: _424  and  _425
REMARK  177  A    between atoms: _424  and  _427
REMARK  178  A    between atoms: _427  and  _428
REMARK  179  A    between atoms: _431  and  _433
REMARK  180  A    between atoms: _433  and  _434
REMARK  181  A    between atoms: _433  and  _436
REMARK  182  A    between atoms: _436  and  _437
REMARK  183  A    between atoms: _441  and  _442
REMARK  184  A    between atoms: _447  and  _449
REMARK  185  A    between atoms: _449  and  _450
REMARK  186  A    between atoms: _449  and  _452
REMARK  187  A    between atoms: _455  and  _457
REMARK  188  A    between atoms: _457  and  _458
REMARK  189  A    between atoms: _457  and  _460
REMARK  190  A    between atoms: _460  and  _461
REMARK  191  A    between atoms: _466  and  _468
REMARK  192  A    between atoms: _468  and  _469
REMARK  193  A    between atoms: _468  and  _471
REMARK  194  A    between atoms: _471  and  _472
REMARK  195  A    between atoms: _475  and  _477
REMARK  196  A    between atoms: _477  and  _478
REMARK  197  A    between atoms: _477  and  _480
REMARK  198  A    between atoms: _480  and  _481
REMARK  199  A    between atoms: _484  and  _486
REMARK  200  A    between atoms: _486  and  _487
REMARK  201  A    between atoms: _489  and  _491
REMARK  202  A    between atoms: _491  and  _492
REMARK  203  A    between atoms: _491  and  _494
REMARK  204  A    between atoms: _494  and  _495
REMARK  205  A    between atoms: _495  and  _496
REMARK  206  A    between atoms: _496  and  _497
REMARK  207  A    between atoms: _506  and  _508
REMARK  208  A    between atoms: _508  and  _509
REMARK  209  A    between atoms: _508  and  _511
REMARK  210  A    between atoms: _511  and  _512
REMARK                            x       y       z     vdW  Elec       q    Type
REMARK                         _______ _______ _______ _____ _____    ______ ____
ROOT
ATOM      1  O   HOH     1      24.973  25.823  12.081  0.00  0.00    +0.000 OA
ENDROOT
TORSDOF 0
REMARK  Name = ../refined-set-2016/2i0a/2i0a_pocket.pdb
REMARK  210 active torsions:
REMARK  status: ('A' for Active; 'I' for Inactive)
REMARK    1  A    between atoms: _1  and  _3
REMARK    2  A    between atoms: _3  and  _4
REMARK    3  A    between atoms: _3  and  _6
REMARK    4  A    between atoms: _6  and  _7
REMARK    5  A    between atoms: _7  and  _8
REMARK    6  A    between atoms: _8  and  _9
REMARK    7  A    between atoms: _18  and  _20
REMARK    8  A    between atoms: _20  and  _21
REMARK    9  A    between atoms: _20  and  _23
REMARK   10  A    between atoms: _23  and  _24
REMARK   11  A    between atoms: _27  and  _29
REMARK   12  A    between atoms: _29  and  _30
REMARK   13  A    between atoms: _29  and  _32
REMARK   14  A    between atoms: _32  and  _33
REMARK   15  A    between atoms: _36  and  _38
REMARK   16  A    between atoms: _38  and  _39
REMARK   17  A    between atoms: _38  and  _41
REMARK   18  A    between atoms: _41  and  _42
REMARK   19  A    between atoms: _45  and  _47
REMARK   20  A    between atoms: _47  and  _48
REMARK   21  A    between atoms: _47  and  _50
REMARK   22  A    between atoms: _50  and  _51
REMARK   23  A    between atoms: _54  and  _56
REMARK   24  A    between atoms: _56  and  _57
REMARK   25  A    between atoms: _59  and  _61
REMARK   26  A    between atoms: _61  and  _62
REMARK   27  A    between atoms: _65  and  _67
REMARK   28  A    between atoms: _67  and  _68
REMARK   29  A    between atoms: _67  and  _70
REMARK   30  A    between atoms: _70  and  _71
REMARK   31  A    between atoms: _74  and  _76
REMARK   32  A    between atoms: _76  and  _77
REMARK   33  A    between atoms: _76  and  _79
REMARK   34  A    between atoms: _79  and  _80
REMARK   35  A    between atoms: _83  and  _85
REMARK   36  A    between atoms: _85  and  _86
REMARK   37  A    between atoms: _85  and  _88
REMARK   38  A    between atoms: _88  and  _89
REMARK   39  A    between atoms: _92  and  _94
REMARK   40  A    between atoms: _94  and  _95
REMARK   41  A    between atoms: _94  and  _97
REMARK   42  A    between atoms: _100  and  _102
REMARK   43  A    between atoms: _102  and  _103
REMARK   44  A    between atoms: _102  and  _105
REMARK   45  A    between atoms: _105  and  _106
REMARK   46  A    between atoms: _106  and  _107
REMARK   47  A    between atoms: _109  and  _111
REMARK   48  A    between atoms: _111  and  _112
REMARK   49  A    between atoms: _111  and  _114
REMARK   50  A    between atoms: _114  and  _115
REMARK   51  A    between atoms: _118  and  _120
REMARK   52  A    between atoms: _120  and  _121
REMARK   53  A    between atoms: _123  and  _125
REMARK   54  A    between atoms: _125  and  _126
REMARK   55  A    between atoms: _128  and  _130
REMARK   56  A    between atoms: _130  and  _131
REMARK   57  A    between atoms: _130  and  _133
REMARK   58  A    between atoms: _133  and  _134
REMARK   59  A    between atoms: _137  and  _139
REMARK   60  A    between atoms: _139  and  _140
REMARK   61  A    between atoms: _142  and  _144
REMARK   62  A    between atoms: _144  and  _145
REMARK   63  A    between atoms: _147  and  _149
REMARK   64  A    between atoms: _149  and  _150
REMARK   65  A    between atoms: _149  and  _152
REMARK   66  A    between atoms: _152  and  _153
REMARK   67  A    between atoms: _159  and  _161
REMARK   68  A    between atoms: _161  and  _162
REMARK   69  A    between atoms: _161  and  _164
REMARK   70  A    between atoms: _164  and  _165
REMARK   71  A    between atoms: _169  and  _170
REMARK   72  A    between atoms: _175  and  _177
REMARK   73  A    between atoms: _177  and  _178
REMARK   74  A    between atoms: _177  and  _180
REMARK   75  A    between atoms: _183  and  _185
REMARK   76  A    between atoms: _185  and  _186
REMARK   77  A    between atoms: _185  and  _188
REMARK   78  A    between atoms: _188  and  _189
REMARK   79  A    between atoms: _194  and  _196
REMARK   80  A    between atoms: _196  and  _197
REMARK   81  A    between atoms: _196  and  _199
REMARK   82  A    between atoms: _199  and  _200
REMARK   83  A    between atoms: _203  and  _205
REMARK   84  A    between atoms: _205  and  _206
REMARK   85  A    between atoms: _205  and  _208
REMARK   86  A    between atoms: _208  and  _209
REMARK   87  A    between atoms: _212  and  _214
REMARK   88  A    between atoms: _214  and  _215
REMARK   89  A    between atoms: _217  and  _219
REMARK   90  A    between atoms: _219  and  _220
REMARK   91  A    between atoms: _219  and  _222
REMARK   92  A    between atoms: _222  and  _223
REMARK   93  A    between atoms: _223  and  _224
REMARK   94  A    between atoms: _224  and  _225
REMARK   95  A    between atoms: _234  and  _236
REMARK   96  A    between atoms: _236  and  _237
REMARK   97  A    between atoms: _236  and  _239
REMARK   98  A    between atoms: _239  and  _240
REMARK   99  A    between atoms: _240  and  _241
REMARK  100  A    between atoms: _241  and  _242
REMARK  101  A    between atoms: _251  and  _253
REMARK  102  A    between atoms: _253  and  _254
REMARK  103  A    between atoms: _253  and  _256
REMARK  104  A    between atoms: _256  and  _257
REMARK  105  A    between atoms: _260  and  _262
REMARK  106  A    between atoms: _262  and  _263
REMARK  107  A    between atoms: _262  and  _265
REMARK  108  A    between atoms: _265  and  _266
REMARK  109  A    between atoms: _269  and  _271
REMARK  110  A    between atoms: _271  and  _272
REMARK  111  A    between atoms: _271  and  _274
REMARK  112  A    between atoms: _274  and  _275
REMARK  113  A    between atoms: _278  and  _280
REMARK  114  A    between atoms: _280  and  _281
REMARK  115  A    between atoms: _280  and  _283
REMARK  116  A    between atoms: _283  and  _284
REMARK  117  A    between atoms: _287  and  _289
REMARK  118  A    between atoms: _289  and  _290
REMARK  119  A    between atoms: _292  and  _294
REMARK  120  A    between atoms: _294  and  _295
REMARK  121  A    between atoms: _298  and  _300
REMARK  122  A    between atoms: _300  and  _301
REMARK  123  A    between atoms: _300  and  _303
REMARK  124  A    between atoms: _303  and  _304
REMARK  125  A    between atoms: _307  and  _309
REMARK  126  A    between atoms: _309  and  _310
REMARK  127  A    between atoms: _309  and  _312
REMARK  128  A    between atoms: _312  and  _313
REMARK  129  A    between atoms: _316  and  _318
REMARK  130  A    between atoms: _318  and  _319
REMARK  131  A    between atoms: _318  and  _321
REMARK  132  A    between atoms: _321  and  _322
REMARK  133  A    between atoms: _325  and  _327
REMARK  134  A    between atoms: _327  and  _328
REMARK  135  A    between atoms: _327  and  _330
REMARK  136  A    between atoms: _333  and  _335
REMARK  137  A    between atoms: _335  and  _336
REMARK  138  A    between atoms: _335  and  _338
REMARK  139  A    between atoms: _338  and  _339
REMARK  140  A    between atoms: _339  and  _340
REMARK  141  A    between atoms: _340  and  _341
REMARK  142  A    between atoms: _341  and  _342
REMARK  143  A    between atoms: _346  and  _348
REMARK  144  A    between atoms: _348  and  _349
REMARK  145  A    between atoms: _348  and  _351
REMARK  146  A    between atoms: _351  and  _352
REMARK  147  A    between atoms: _352  and  _353
REMARK  148  A    between atoms: _355  and  _357
REMARK  149  A    between atoms: _357  and  _358
REMARK  150  A    between atoms: _357  and  _360
REMARK  151  A    between atoms: _360  and  _361
REMARK  152  A    between atoms: _364  and  _366
REMARK  153  A    between atoms: _366  and  _367
REMARK  154  A    between atoms: _369  and  _371
REMARK  155  A    between atoms: _371  and  _372
REMARK  156  A    between atoms: _374  and  _376
REMARK  157  A    between atoms: _376  and  _377
REMARK  158  A    between atoms: _376  and  _379
REMARK  159  A    between atoms: _379  and  _380
REMARK  160  A    between atoms: _383  and  _385
REMARK  161  A    between atoms: _385  and  _386
REMARK  162  A    between atoms: _388  and  _390
REMARK  163  A    between atoms: _390  and  _391
REMARK  164  A    between atoms: _393  and  _395
REMARK  165  A    between atoms: _395  and  _396
REMARK  166  A    between atoms: _395  and  _398
REMARK  167  A    between atoms: _398  and  _399
REMARK  168  A    between atoms: _405  and  _407
REMARK  169  A    between atoms: _407  and  _408
REMARK  170  A    between atoms: _407  and  _410
REMARK  171  A    between atoms: _410  and  _411
REMARK  172  A    between atoms: _414  and  _416
REMARK  173  A    between atoms: _416  and  _417
REMARK  174  A    between atoms: _416  and  _419
REMARK  175  A    between atoms: _422  and  _424
REMARK  176  A    between atoms: _424  and  _425
REMARK  177  A    between atoms: _424  and  _427
REMARK  178  A    between atoms: _427  and  _428
REMARK  179  A    between atoms: _431  and  _433
REMARK  180  A    between atoms: _433  and  _434
REMARK  181  A    between atoms: _433  and  _436
REMARK  182  A    between atoms: _436  and  _437
REMARK  183  A    between atoms: _441  and  _442
REMARK  184  A    between atoms: _447  and  _449
REMARK  185  A    between atoms: _449  and  _450
REMARK  186  A    between atoms: _449  and  _452
REMARK  187  A    between atoms: _455  and  _457
REMARK  188  A    between atoms: _457  and  _458
REMARK  189  A    between atoms: _457  and  _460
REMARK  190  A    between atoms: _460  and  _461
REMARK  191  A    between atoms: _466  and  _468
REMARK  192  A    between atoms: _468  and  _469
REMARK  193  A    between atoms: _468  and  _471
REMARK  194  A    between atoms: _471  and  _472
REMARK  195  A    between atoms: _475  and  _477
REMARK  196  A    between atoms: _477  and  _478
REMARK  197  A    between atoms: _477  and  _480
REMARK  198  A    between atoms: _480  and  _481
REMARK  199  A    between atoms: _484  and  _486
REMARK  200  A    between atoms: _486  and  _487
REMARK  201  A    between atoms: _489  and  _491
REMARK  202  A    between atoms: _491  and  _492
REMARK  203  A    between atoms: _491  and  _494
REMARK  204  A    between atoms: _494  and  _495
REMARK  205  A    between atoms: _495  and  _496
REMARK  206  A    between atoms: _496  and  _497
REMARK  207  A    between atoms: _506  and  _508
REMARK  208  A    between atoms: _508  and  _509
REMARK  209  A    between atoms: _508  and  _511
REMARK  210  A    between atoms: _511  and  _512
REMARK                            x       y       z     vdW  Elec       q    Type
REMARK                         _______ _______ _______ _____ _____    ______ ____
ROOT
ATOM      1  O   HOH     1      26.207  18.528  13.311  0.00  0.00    +0.000 OA
ENDROOT
TORSDOF 0
REMARK  Name = ../refined-set-2016/2i0a/2i0a_pocket.pdb
REMARK  210 active torsions:
REMARK  status: ('A' for Active; 'I' for Inactive)
REMARK    1  A    between atoms: _1  and  _3
REMARK    2  A    between atoms: _3  and  _4
REMARK    3  A    between atoms: _3  and  _6
REMARK    4  A    between atoms: _6  and  _7
REMARK    5  A    between atoms: _7  and  _8
REMARK    6  A    between atoms: _8  and  _9
REMARK    7  A    between atoms: _18  and  _20
REMARK    8  A    between atoms: _20  and  _21
REMARK    9  A    between atoms: _20  and  _23
REMARK   10  A    between atoms: _23  and  _24
REMARK   11  A    between atoms: _27  and  _29
REMARK   12  A    between atoms: _29  and  _30
REMARK   13  A    between atoms: _29  and  _32
REMARK   14  A    between atoms: _32  and  _33
REMARK   15  A    between atoms: _36  and  _38
REMARK   16  A    between atoms: _38  and  _39
REMARK   17  A    between atoms: _38  and  _41
REMARK   18  A    between atoms: _41  and  _42
REMARK   19  A    between atoms: _45  and  _47
REMARK   20  A    between atoms: _47  and  _48
REMARK   21  A    between atoms: _47  and  _50
REMARK   22  A    between atoms: _50  and  _51
REMARK   23  A    between atoms: _54  and  _56
REMARK   24  A    between atoms: _56  and  _57
REMARK   25  A    between atoms: _59  and  _61
REMARK   26  A    between atoms: _61  and  _62
REMARK   27  A    between atoms: _65  and  _67
REMARK   28  A    between atoms: _67  and  _68
REMARK   29  A    between atoms: _67  and  _70
REMARK   30  A    between atoms: _70  and  _71
REMARK   31  A    between atoms: _74  and  _76
REMARK   32  A    between atoms: _76  and  _77
REMARK   33  A    between atoms: _76  and  _79
REMARK   34  A    between atoms: _79  and  _80
REMARK   35  A    between atoms: _83  and  _85
REMARK   36  A    between atoms: _85  and  _86
REMARK   37  A    between atoms: _85  and  _88
REMARK   38  A    between atoms: _88  and  _89
REMARK   39  A    between atoms: _92  and  _94
REMARK   40  A    between atoms: _94  and  _95
REMARK   41  A    between atoms: _94  and  _97
REMARK   42  A    between atoms: _100  and  _102
REMARK   43  A    between atoms: _102  and  _103
REMARK   44  A    between atoms: _102  and  _105
REMARK   45  A    between atoms: _105  and  _106
REMARK   46  A    between atoms: _106  and  _107
REMARK   47  A    between atoms: _109  and  _111
REMARK   48  A    between atoms: _111  and  _112
REMARK   49  A    between atoms: _111  and  _114
REMARK   50  A    between atoms: _114  and  _115
REMARK   51  A    between atoms: _118  and  _120
REMARK   52  A    between atoms: _120  and  _121
REMARK   53  A    between atoms: _123  and  _125
REMARK   54  A    between atoms: _125  and  _126
REMARK   55  A    between atoms: _128  and  _130
REMARK   56  A    between atoms: _130  and  _131
REMARK   57  A    between atoms: _130  and  _133
REMARK   58  A    between atoms: _133  and  _134
REMARK   59  A    between atoms: _137  and  _139
REMARK   60  A    between atoms: _139  and  _140
REMARK   61  A    between atoms: _142  and  _144
REMARK   62  A    between atoms: _144  and  _145
REMARK   63  A    between atoms: _147  and  _149
REMARK   64  A    between atoms: _149  and  _150
REMARK   65  A    between atoms: _149  and  _152
REMARK   66  A    between atoms: _152  and  _153
REMARK   67  A    between atoms: _159  and  _161
REMARK   68  A    between atoms: _161  and  _162
REMARK   69  A    between atoms: _161  and  _164
REMARK   70  A    between atoms: _164  and  _165
REMARK   71  A    between atoms: _169  and  _170
REMARK   72  A    between atoms: _175  and  _177
REMARK   73  A    between atoms: _177  and  _178
REMARK   74  A    between atoms: _177  and  _180
REMARK   75  A    between atoms: _183  and  _185
REMARK   76  A    between atoms: _185  and  _186
REMARK   77  A    between atoms: _185  and  _188
REMARK   78  A    between atoms: _188  and  _189
REMARK   79  A    between atoms: _194  and  _196
REMARK   80  A    between atoms: _196  and  _197
REMARK   81  A    between atoms: _196  and  _199
REMARK   82  A    between atoms: _199  and  _200
REMARK   83  A    between atoms: _203  and  _205
REMARK   84  A    between atoms: _205  and  _206
REMARK   85  A    between atoms: _205  and  _208
REMARK   86  A    between atoms: _208  and  _209
REMARK   87  A    between atoms: _212  and  _214
REMARK   88  A    between atoms: _214  and  _215
REMARK   89  A    between atoms: _217  and  _219
REMARK   90  A    between atoms: _219  and  _220
REMARK   91  A    between atoms: _219  and  _222
REMARK   92  A    between atoms: _222  and  _223
REMARK   93  A    between atoms: _223  and  _224
REMARK   94  A    between atoms: _224  and  _225
REMARK   95  A    between atoms: _234  and  _236
REMARK   96  A    between atoms: _236  and  _237
REMARK   97  A    between atoms: _236  and  _239
REMARK   98  A    between atoms: _239  and  _240
REMARK   99  A    between atoms: _240  and  _241
REMARK  100  A    between atoms: _241  and  _242
REMARK  101  A    between atoms: _251  and  _253
REMARK  102  A    between atoms: _253  and  _254
REMARK  103  A    between atoms: _253  and  _256
REMARK  104  A    between atoms: _256  and  _257
REMARK  105  A    between atoms: _260  and  _262
REMARK  106  A    between atoms: _262  and  _263
REMARK  107  A    between atoms: _262  and  _265
REMARK  108  A    between atoms: _265  and  _266
REMARK  109  A    between atoms: _269  and  _271
REMARK  110  A    between atoms: _271  and  _272
REMARK  111  A    between atoms: _271  and  _274
REMARK  112  A    between atoms: _274  and  _275
REMARK  113  A    between atoms: _278  and  _280
REMARK  114  A    between atoms: _280  and  _281
REMARK  115  A    between atoms: _280  and  _283
REMARK  116  A    between atoms: _283  and  _284
REMARK  117  A    between atoms: _287  and  _289
REMARK  118  A    between atoms: _289  and  _290
REMARK  119  A    between atoms: _292  and  _294
REMARK  120  A    between atoms: _294  and  _295
REMARK  121  A    between atoms: _298  and  _300
REMARK  122  A    between atoms: _300  and  _301
REMARK  123  A    between atoms: _300  and  _303
REMARK  124  A    between atoms: _303  and  _304
REMARK  125  A    between atoms: _307  and  _309
REMARK  126  A    between atoms: _309  and  _310
REMARK  127  A    between atoms: _309  and  _312
REMARK  128  A    between atoms: _312  and  _313
REMARK  129  A    between atoms: _316  and  _318
REMARK  130  A    between atoms: _318  and  _319
REMARK  131  A    between atoms: _318  and  _321
REMARK  132  A    between atoms: _321  and  _322
REMARK  133  A    between atoms: _325  and  _327
REMARK  134  A    between atoms: _327  and  _328
REMARK  135  A    between atoms: _327  and  _330
REMARK  136  A    between atoms: _333  and  _335
REMARK  137  A    between atoms: _335  and  _336
REMARK  138  A    between atoms: _335  and  _338
REMARK  139  A    between atoms: _338  and  _339
REMARK  140  A    between atoms: _339  and  _340
REMARK  141  A    between atoms: _340  and  _341
REMARK  142  A    between atoms: _341  and  _342
REMARK  143  A    between atoms: _346  and  _348
REMARK  144  A    between atoms: _348  and  _349
REMARK  145  A    between atoms: _348  and  _351
REMARK  146  A    between atoms: _351  and  _352
REMARK  147  A    between atoms: _352  and  _353
REMARK  148  A    between atoms: _355  and  _357
REMARK  149  A    between atoms: _357  and  _358
REMARK  150  A    between atoms: _357  and  _360
REMARK  151  A    between atoms: _360  and  _361
REMARK  152  A    between atoms: _364  and  _366
REMARK  153  A    between atoms: _366  and  _367
REMARK  154  A    between atoms: _369  and  _371
REMARK  155  A    between atoms: _371  and  _372
REMARK  156  A    between atoms: _374  and  _376
REMARK  157  A    between atoms: _376  and  _377
REMARK  158  A    between atoms: _376  and  _379
REMARK  159  A    between atoms: _379  and  _380
REMARK  160  A    between atoms: _383  and  _385
REMARK  161  A    between atoms: _385  and  _386
REMARK  162  A    between atoms: _388  and  _390
REMARK  163  A    between atoms: _390  and  _391
REMARK  164  A    between atoms: _393  and  _395
REMARK  165  A    between atoms: _395  and  _396
REMARK  166  A    between atoms: _395  and  _398
REMARK  167  A    between atoms: _398  and  _399
REMARK  168  A    between atoms: _405  and  _407
REMARK  169  A    between atoms: _407  and  _408
REMARK  170  A    between atoms: _407  and  _410
REMARK  171  A    between atoms: _410  and  _411
REMARK  172  A    between atoms: _414  and  _416
REMARK  173  A    between atoms: _416  and  _417
REMARK  174  A    between atoms: _416  and  _419
REMARK  175  A    between atoms: _422  and  _424
REMARK  176  A    between atoms: _424  and  _425
REMARK  177  A    between atoms: _424  and  _427
REMARK  178  A    between atoms: _427  and  _428
REMARK  179  A    between atoms: _431  and  _433
REMARK  180  A    between atoms: _433  and  _434
REMARK  181  A    between atoms: _433  and  _436
REMARK  182  A    between atoms: _436  and  _437
REMARK  183  A    between atoms: _441  and  _442
REMARK  184  A    between atoms: _447  and  _449
REMARK  185  A    between atoms: _449  and  _450
REMARK  186  A    between atoms: _449  and  _452
REMARK  187  A    between atoms: _455  and  _457
REMARK  188  A    between atoms: _457  and  _458
REMARK  189  A    between atoms: _457  and  _460
REMARK  190  A    between atoms: _460  and  _461
REMARK  191  A    between atoms: _466  and  _468
REMARK  192  A    between atoms: _468  and  _469
REMARK  193  A    between atoms: _468  and  _471
REMARK  194  A    between atoms: _471  and  _472
REMARK  195  A    between atoms: _475  and  _477
REMARK  196  A    between atoms: _477  and  _478
REMARK  197  A    between atoms: _477  and  _480
REMARK  198  A    between atoms: _480  and  _481
REMARK  199  A    between atoms: _484  and  _486
REMARK  200  A    between atoms: _486  and  _487
REMARK  201  A    between atoms: _489  and  _491
REMARK  202  A    between atoms: _491  and  _492
REMARK  203  A    between atoms: _491  and  _494
REMARK  204  A    between atoms: _494  and  _495
REMARK  205  A    between atoms: _495  and  _496
REMARK  206  A    between atoms: _496  and  _497
REMARK  207  A    between atoms: _506  and  _508
REMARK  208  A    between atoms: _508  and  _509
REMARK  209  A    between atoms: _508  and  _511
REMARK  210  A    between atoms: _511  and  _512
REMARK                            x       y       z     vdW  Elec       q    Type
REMARK                         _______ _______ _______ _____ _____    ______ ____
ROOT
ATOM      1  O   HOH     1      23.868  25.039   5.691  0.00  0.00    +0.000 OA
ENDROOT
TORSDOF 0
REMARK  Name = ../refined-set-2016/2i0a/2i0a_pocket.pdb
REMARK  210 active torsions:
REMARK  status: ('A' for Active; 'I' for Inactive)
REMARK    1  A    between atoms: _1  and  _3
REMARK    2  A    between atoms: _3  and  _4
REMARK    3  A    between atoms: _3  and  _6
REMARK    4  A    between atoms: _6  and  _7
REMARK    5  A    between atoms: _7  and  _8
REMARK    6  A    between atoms: _8  and  _9
REMARK    7  A    between atoms: _18  and  _20
REMARK    8  A    between atoms: _20  and  _21
REMARK    9  A    between atoms: _20  and  _23
REMARK   10  A    between atoms: _23  and  _24
REMARK   11  A    between atoms: _27  and  _29
REMARK   12  A    between atoms: _29  and  _30
REMARK   13  A    between atoms: _29  and  _32
REMARK   14  A    between atoms: _32  and  _33
REMARK   15  A    between atoms: _36  and  _38
REMARK   16  A    between atoms: _38  and  _39
REMARK   17  A    between atoms: _38  and  _41
REMARK   18  A    between atoms: _41  and  _42
REMARK   19  A    between atoms: _45  and  _47
REMARK   20  A    between atoms: _47  and  _48
REMARK   21  A    between atoms: _47  and  _50
REMARK   22  A    between atoms: _50  and  _51
REMARK   23  A    between atoms: _54  and  _56
REMARK   24  A    between atoms: _56  and  _57
REMARK   25  A    between atoms: _59  and  _61
REMARK   26  A    between atoms: _61  and  _62
REMARK   27  A    between atoms: _65  and  _67
REMARK   28  A    between atoms: _67  and  _68
REMARK   29  A    between atoms: _67  and  _70
REMARK   30  A    between atoms: _70  and  _71
REMARK   31  A    between atoms: _74  and  _76
REMARK   32  A    between atoms: _76  and  _77
REMARK   33  A    between atoms: _76  and  _79
REMARK   34  A    between atoms: _79  and  _80
REMARK   35  A    between atoms: _83  and  _85
REMARK   36  A    between atoms: _85  and  _86
REMARK   37  A    between atoms: _85  and  _88
REMARK   38  A    between atoms: _88  and  _89
REMARK   39  A    between atoms: _92  and  _94
REMARK   40  A    between atoms: _94  and  _95
REMARK   41  A    between atoms: _94  and  _97
REMARK   42  A    between atoms: _100  and  _102
REMARK   43  A    between atoms: _102  and  _103
REMARK   44  A    between atoms: _102  and  _105
REMARK   45  A    between atoms: _105  and  _106
REMARK   46  A    between atoms: _106  and  _107
REMARK   47  A    between atoms: _109  and  _111
REMARK   48  A    between atoms: _111  and  _112
REMARK   49  A    between atoms: _111  and  _114
REMARK   50  A    between atoms: _114  and  _115
REMARK   51  A    between atoms: _118  and  _120
REMARK   52  A    between atoms: _120  and  _121
REMARK   53  A    between atoms: _123  and  _125
REMARK   54  A    between atoms: _125  and  _126
REMARK   55  A    between atoms: _128  and  _130
REMARK   56  A    between atoms: _130  and  _131
REMARK   57  A    between atoms: _130  and  _133
REMARK   58  A    between atoms: _133  and  _134
REMARK   59  A    between atoms: _137  and  _139
REMARK   60  A    between atoms: _139  and  _140
REMARK   61  A    between atoms: _142  and  _144
REMARK   62  A    between atoms: _144  and  _145
REMARK   63  A    between atoms: _147  and  _149
REMARK   64  A    between atoms: _149  and  _150
REMARK   65  A    between atoms: _149  and  _152
REMARK   66  A    between atoms: _152  and  _153
REMARK   67  A    between atoms: _159  and  _161
REMARK   68  A    between atoms: _161  and  _162
REMARK   69  A    between atoms: _161  and  _164
REMARK   70  A    between atoms: _164  and  _165
REMARK   71  A    between atoms: _169  and  _170
REMARK   72  A    between atoms: _175  and  _177
REMARK   73  A    between atoms: _177  and  _178
REMARK   74  A    between atoms: _177  and  _180
REMARK   75  A    between atoms: _183  and  _185
REMARK   76  A    between atoms: _185  and  _186
REMARK   77  A    between atoms: _185  and  _188
REMARK   78  A    between atoms: _188  and  _189
REMARK   79  A    between atoms: _194  and  _196
REMARK   80  A    between atoms: _196  and  _197
REMARK   81  A    between atoms: _196  and  _199
REMARK   82  A    between atoms: _199  and  _200
REMARK   83  A    between atoms: _203  and  _205
REMARK   84  A    between atoms: _205  and  _206
REMARK   85  A    between atoms: _205  and  _208
REMARK   86  A    between atoms: _208  and  _209
REMARK   87  A    between atoms: _212  and  _214
REMARK   88  A    between atoms: _214  and  _215
REMARK   89  A    between atoms: _217  and  _219
REMARK   90  A    between atoms: _219  and  _220
REMARK   91  A    between atoms: _219  and  _222
REMARK   92  A    between atoms: _222  and  _223
REMARK   93  A    between atoms: _223  and  _224
REMARK   94  A    between atoms: _224  and  _225
REMARK   95  A    between atoms: _234  and  _236
REMARK   96  A    between atoms: _236  and  _237
REMARK   97  A    between atoms: _236  and  _239
REMARK   98  A    between atoms: _239  and  _240
REMARK   99  A    between atoms: _240  and  _241
REMARK  100  A    between atoms: _241  and  _242
REMARK  101  A    between atoms: _251  and  _253
REMARK  102  A    between atoms: _253  and  _254
REMARK  103  A    between atoms: _253  and  _256
REMARK  104  A    between atoms: _256  and  _257
REMARK  105  A    between atoms: _260  and  _262
REMARK  106  A    between atoms: _262  and  _263
REMARK  107  A    between atoms: _262  and  _265
REMARK  108  A    between atoms: _265  and  _266
REMARK  109  A    between atoms: _269  and  _271
REMARK  110  A    between atoms: _271  and  _272
REMARK  111  A    between atoms: _271  and  _274
REMARK  112  A    between atoms: _274  and  _275
REMARK  113  A    between atoms: _278  and  _280
REMARK  114  A    between atoms: _280  and  _281
REMARK  115  A    between atoms: _280  and  _283
REMARK  116  A    between atoms: _283  and  _284
REMARK  117  A    between atoms: _287  and  _289
REMARK  118  A    between atoms: _289  and  _290
REMARK  119  A    between atoms: _292  and  _294
REMARK  120  A    between atoms: _294  and  _295
REMARK  121  A    between atoms: _298  and  _300
REMARK  122  A    between atoms: _300  and  _301
REMARK  123  A    between atoms: _300  and  _303
REMARK  124  A    between atoms: _303  and  _304
REMARK  125  A    between atoms: _307  and  _309
REMARK  126  A    between atoms: _309  and  _310
REMARK  127  A    between atoms: _309  and  _312
REMARK  128  A    between atoms: _312  and  _313
REMARK  129  A    between atoms: _316  and  _318
REMARK  130  A    between atoms: _318  and  _319
REMARK  131  A    between atoms: _318  and  _321
REMARK  132  A    between atoms: _321  and  _322
REMARK  133  A    between atoms: _325  and  _327
REMARK  134  A    between atoms: _327  and  _328
REMARK  135  A    between atoms: _327  and  _330
REMARK  136  A    between atoms: _333  and  _335
REMARK  137  A    between atoms: _335  and  _336
REMARK  138  A    between atoms: _335  and  _338
REMARK  139  A    between atoms: _338  and  _339
REMARK  140  A    between atoms: _339  and  _340
REMARK  141  A    between atoms: _340  and  _341
REMARK  142  A    between atoms: _341  and  _342
REMARK  143  A    between atoms: _346  and  _348
REMARK  144  A    between atoms: _348  and  _349
REMARK  145  A    between atoms: _348  and  _351
REMARK  146  A    between atoms: _351  and  _352
REMARK  147  A    between atoms: _352  and  _353
REMARK  148  A    between atoms: _355  and  _357
REMARK  149  A    between atoms: _357  and  _358
REMARK  150  A    between atoms: _357  and  _360
REMARK  151  A    between atoms: _360  and  _361
REMARK  152  A    between atoms: _364  and  _366
REMARK  153  A    between atoms: _366  and  _367
REMARK  154  A    between atoms: _369  and  _371
REMARK  155  A    between atoms: _371  and  _372
REMARK  156  A    between atoms: _374  and  _376
REMARK  157  A    between atoms: _376  and  _377
REMARK  158  A    between atoms: _376  and  _379
REMARK  159  A    between atoms: _379  and  _380
REMARK  160  A    between atoms: _383  and  _385
REMARK  161  A    between atoms: _385  and  _386
REMARK  162  A    between atoms: _388  and  _390
REMARK  163  A    between atoms: _390  and  _391
REMARK  164  A    between atoms: _393  and  _395
REMARK  165  A    between atoms: _395  and  _396
REMARK  166  A    between atoms: _395  and  _398
REMARK  167  A    between atoms: _398  and  _399
REMARK  168  A    between atoms: _405  and  _407
REMARK  169  A    between atoms: _407  and  _408
REMARK  170  A    between atoms: _407  and  _410
REMARK  171  A    between atoms: _410  and  _411
REMARK  172  A    between atoms: _414  and  _416
REMARK  173  A    between atoms: _416  and  _417
REMARK  174  A    between atoms: _416  and  _419
REMARK  175  A    between atoms: _422  and  _424
REMARK  176  A    between atoms: _424  and  _425
REMARK  177  A    between atoms: _424  and  _427
REMARK  178  A    between atoms: _427  and  _428
REMARK  179  A    between atoms: _431  and  _433
REMARK  180  A    between atoms: _433  and  _434
REMARK  181  A    between atoms: _433  and  _436
REMARK  182  A    between atoms: _436  and  _437
REMARK  183  A    between atoms: _441  and  _442
REMARK  184  A    between atoms: _447  and  _449
REMARK  185  A    between atoms: _449  and  _450
REMARK  186  A    between atoms: _449  and  _452
REMARK  187  A    between atoms: _455  and  _457
REMARK  188  A    between atoms: _457  and  _458
REMARK  189  A    between atoms: _457  and  _460
REMARK  190  A    between atoms: _460  and  _461
REMARK  191  A    between atoms: _466  and  _468
REMARK  192  A    between atoms: _468  and  _469
REMARK  193  A    between atoms: _468  and  _471
REMARK  194  A    between atoms: _471  and  _472
REMARK  195  A    between atoms: _475  and  _477
REMARK  196  A    between atoms: _477  and  _478
REMARK  197  A    between atoms: _477  and  _480
REMARK  198  A    between atoms: _480  and  _481
REMARK  199  A    between atoms: _484  and  _486
REMARK  200  A    between atoms: _486  and  _487
REMARK  201  A    between atoms: _489  and  _491
REMARK  202  A    between atoms: _491  and  _492
REMARK  203  A    between atoms: _491  and  _494
REMARK  204  A    between atoms: _494  and  _495
REMARK  205  A    between atoms: _495  and  _496
REMARK  206  A    between atoms: _496  and  _497
REMARK  207  A    between atoms: _506  and  _508
REMARK  208  A    between atoms: _508  and  _509
REMARK  209  A    between atoms: _508  and  _511
REMARK  210  A    between atoms: _511  and  _512
REMARK                            x       y       z     vdW  Elec       q    Type
REMARK                         _______ _______ _______ _____ _____    ______ ____
ROOT
ATOM      1  O   HOH     1      16.703  25.567   6.748  0.00  0.00    +0.000 OA
ENDROOT
TORSDOF 0
REMARK  Name = ../refined-set-2016/2i0a/2i0a_pocket.pdb
REMARK  210 active torsions:
REMARK  status: ('A' for Active; 'I' for Inactive)
REMARK    1  A    between atoms: _1  and  _3
REMARK    2  A    between atoms: _3  and  _4
REMARK    3  A    between atoms: _3  and  _6
REMARK    4  A    between atoms: _6  and  _7
REMARK    5  A    between atoms: _7  and  _8
REMARK    6  A    between atoms: _8  and  _9
REMARK    7  A    between atoms: _18  and  _20
REMARK    8  A    between atoms: _20  and  _21
REMARK    9  A    between atoms: _20  and  _23
REMARK   10  A    between atoms: _23  and  _24
REMARK   11  A    between atoms: _27  and  _29
REMARK   12  A    between atoms: _29  and  _30
REMARK   13  A    between atoms: _29  and  _32
REMARK   14  A    between atoms: _32  and  _33
REMARK   15  A    between atoms: _36  and  _38
REMARK   16  A    between atoms: _38  and  _39
REMARK   17  A    between atoms: _38  and  _41
REMARK   18  A    between atoms: _41  and  _42
REMARK   19  A    between atoms: _45  and  _47
REMARK   20  A    between atoms: _47  and  _48
REMARK   21  A    between atoms: _47  and  _50
REMARK   22  A    between atoms: _50  and  _51
REMARK   23  A    between atoms: _54  and  _56
REMARK   24  A    between atoms: _56  and  _57
REMARK   25  A    between atoms: _59  and  _61
REMARK   26  A    between atoms: _61  and  _62
REMARK   27  A    between atoms: _65  and  _67
REMARK   28  A    between atoms: _67  and  _68
REMARK   29  A    between atoms: _67  and  _70
REMARK   30  A    between atoms: _70  and  _71
REMARK   31  A    between atoms: _74  and  _76
REMARK   32  A    between atoms: _76  and  _77
REMARK   33  A    between atoms: _76  and  _79
REMARK   34  A    between atoms: _79  and  _80
REMARK   35  A    between atoms: _83  and  _85
REMARK   36  A    between atoms: _85  and  _86
REMARK   37  A    between atoms: _85  and  _88
REMARK   38  A    between atoms: _88  and  _89
REMARK   39  A    between atoms: _92  and  _94
REMARK   40  A    between atoms: _94  and  _95
REMARK   41  A    between atoms: _94  and  _97
REMARK   42  A    between atoms: _100  and  _102
REMARK   43  A    between atoms: _102  and  _103
REMARK   44  A    between atoms: _102  and  _105
REMARK   45  A    between atoms: _105  and  _106
REMARK   46  A    between atoms: _106  and  _107
REMARK   47  A    between atoms: _109  and  _111
REMARK   48  A    between atoms: _111  and  _112
REMARK   49  A    between atoms: _111  and  _114
REMARK   50  A    between atoms: _114  and  _115
REMARK   51  A    between atoms: _118  and  _120
REMARK   52  A    between atoms: _120  and  _121
REMARK   53  A    between atoms: _123  and  _125
REMARK   54  A    between atoms: _125  and  _126
REMARK   55  A    between atoms: _128  and  _130
REMARK   56  A    between atoms: _130  and  _131
REMARK   57  A    between atoms: _130  and  _133
REMARK   58  A    between atoms: _133  and  _134
REMARK   59  A    between atoms: _137  and  _139
REMARK   60  A    between atoms: _139  and  _140
REMARK   61  A    between atoms: _142  and  _144
REMARK   62  A    between atoms: _144  and  _145
REMARK   63  A    between atoms: _147  and  _149
REMARK   64  A    between atoms: _149  and  _150
REMARK   65  A    between atoms: _149  and  _152
REMARK   66  A    between atoms: _152  and  _153
REMARK   67  A    between atoms: _159  and  _161
REMARK   68  A    between atoms: _161  and  _162
REMARK   69  A    between atoms: _161  and  _164
REMARK   70  A    between atoms: _164  and  _165
REMARK   71  A    between atoms: _169  and  _170
REMARK   72  A    between atoms: _175  and  _177
REMARK   73  A    between atoms: _177  and  _178
REMARK   74  A    between atoms: _177  and  _180
REMARK   75  A    between atoms: _183  and  _185
REMARK   76  A    between atoms: _185  and  _186
REMARK   77  A    between atoms: _185  and  _188
REMARK   78  A    between atoms: _188  and  _189
REMARK   79  A    between atoms: _194  and  _196
REMARK   80  A    between atoms: _196  and  _197
REMARK   81  A    between atoms: _196  and  _199
REMARK   82  A    between atoms: _199  and  _200
REMARK   83  A    between atoms: _203  and  _205
REMARK   84  A    between atoms: _205  and  _206
REMARK   85  A    between atoms: _205  and  _208
REMARK   86  A    between atoms: _208  and  _209
REMARK   87  A    between atoms: _212  and  _214
REMARK   88  A    between atoms: _214  and  _215
REMARK   89  A    between atoms: _217  and  _219
REMARK   90  A    between atoms: _219  and  _220
REMARK   91  A    between atoms: _219  and  _222
REMARK   92  A    between atoms: _222  and  _223
REMARK   93  A    between atoms: _223  and  _224
REMARK   94  A    between atoms: _224  and  _225
REMARK   95  A    between atoms: _234  and  _236
REMARK   96  A    between atoms: _236  and  _237
REMARK   97  A    between atoms: _236  and  _239
REMARK   98  A    between atoms: _239  and  _240
REMARK   99  A    between atoms: _240  and  _241
REMARK  100  A    between atoms: _241  and  _242
REMARK  101  A    between atoms: _251  and  _253
REMARK  102  A    between atoms: _253  and  _254
REMARK  103  A    between atoms: _253  and  _256
REMARK  104  A    between atoms: _256  and  _257
REMARK  105  A    between atoms: _260  and  _262
REMARK  106  A    between atoms: _262  and  _263
REMARK  107  A    between atoms: _262  and  _265
REMARK  108  A    between atoms: _265  and  _266
REMARK  109  A    between atoms: _269  and  _271
REMARK  110  A    between atoms: _271  and  _272
REMARK  111  A    between atoms: _271  and  _274
REMARK  112  A    between atoms: _274  and  _275
REMARK  113  A    between atoms: _278  and  _280
REMARK  114  A    between atoms: _280  and  _281
REMARK  115  A    between atoms: _280  and  _283
REMARK  116  A    between atoms: _283  and  _284
REMARK  117  A    between atoms: _287  and  _289
REMARK  118  A    between atoms: _289  and  _290
REMARK  119  A    between atoms: _292  and  _294
REMARK  120  A    between atoms: _294  and  _295
REMARK  121  A    between atoms: _298  and  _300
REMARK  122  A    between atoms: _300  and  _301
REMARK  123  A    between atoms: _300  and  _303
REMARK  124  A    between atoms: _303  and  _304
REMARK  125  A    between atoms: _307  and  _309
REMARK  126  A    between atoms: _309  and  _310
REMARK  127  A    between atoms: _309  and  _312
REMARK  128  A    between atoms: _312  and  _313
REMARK  129  A    between atoms: _316  and  _318
REMARK  130  A    between atoms: _318  and  _319
REMARK  131  A    between atoms: _318  and  _321
REMARK  132  A    between atoms: _321  and  _322
REMARK  133  A    between atoms: _325  and  _327
REMARK  134  A    between atoms: _327  and  _328
REMARK  135  A    between atoms: _327  and  _330
REMARK  136  A    between atoms: _333  and  _335
REMARK  137  A    between atoms: _335  and  _336
REMARK  138  A    between atoms: _335  and  _338
REMARK  139  A    between atoms: _338  and  _339
REMARK  140  A    between atoms: _339  and  _340
REMARK  141  A    between atoms: _340  and  _341
REMARK  142  A    between atoms: _341  and  _342
REMARK  143  A    between atoms: _346  and  _348
REMARK  144  A    between atoms: _348  and  _349
REMARK  145  A    between atoms: _348  and  _351
REMARK  146  A    between atoms: _351  and  _352
REMARK  147  A    between atoms: _352  and  _353
REMARK  148  A    between atoms: _355  and  _357
REMARK  149  A    between atoms: _357  and  _358
REMARK  150  A    between atoms: _357  and  _360
REMARK  151  A    between atoms: _360  and  _361
REMARK  152  A    between atoms: _364  and  _366
REMARK  153  A    between atoms: _366  and  _367
REMARK  154  A    between atoms: _369  and  _371
REMARK  155  A    between atoms: _371  and  _372
REMARK  156  A    between atoms: _374  and  _376
REMARK  157  A    between atoms: _376  and  _377
REMARK  158  A    between atoms: _376  and  _379
REMARK  159  A    between atoms: _379  and  _380
REMARK  160  A    between atoms: _383  and  _385
REMARK  161  A    between atoms: _385  and  _386
REMARK  162  A    between atoms: _388  and  _390
REMARK  163  A    between atoms: _390  and  _391
REMARK  164  A    between atoms: _393  and  _395
REMARK  165  A    between atoms: _395  and  _396
REMARK  166  A    between atoms: _395  and  _398
REMARK  167  A    between atoms: _398  and  _399
REMARK  168  A    between atoms: _405  and  _407
REMARK  169  A    between atoms: _407  and  _408
REMARK  170  A    between atoms: _407  and  _410
REMARK  171  A    between atoms: _410  and  _411
REMARK  172  A    between atoms: _414  and  _416
REMARK  173  A    between atoms: _416  and  _417
REMARK  174  A    between atoms: _416  and  _419
REMARK  175  A    between atoms: _422  and  _424
REMARK  176  A    between atoms: _424  and  _425
REMARK  177  A    between atoms: _424  and  _427
REMARK  178  A    between atoms: _427  and  _428
REMARK  179  A    between atoms: _431  and  _433
REMARK  180  A    between atoms: _433  and  _434
REMARK  181  A    between atoms: _433  and  _436
REMARK  182  A    between atoms: _436  and  _437
REMARK  183  A    between atoms: _441  and  _442
REMARK  184  A    between atoms: _447  and  _449
REMARK  185  A    between atoms: _449  and  _450
REMARK  186  A    between atoms: _449  and  _452
REMARK  187  A    between atoms: _455  and  _457
REMARK  188  A    between atoms: _457  and  _458
REMARK  189  A    between atoms: _457  and  _460
REMARK  190  A    between atoms: _460  and  _461
REMARK  191  A    between atoms: _466  and  _468
REMARK  192  A    between atoms: _468  and  _469
REMARK  193  A    between atoms: _468  and  _471
REMARK  194  A    between atoms: _471  and  _472
REMARK  195  A    between atoms: _475  and  _477
REMARK  196  A    between atoms: _477  and  _478
REMARK  197  A    between atoms: _477  and  _480
REMARK  198  A    between atoms: _480  and  _481
REMARK  199  A    between atoms: _484  and  _486
REMARK  200  A    between atoms: _486  and  _487
REMARK  201  A    between atoms: _489  and  _491
REMARK  202  A    between atoms: _491  and  _492
REMARK  203  A    between atoms: _491  and  _494
REMARK  204  A    between atoms: _494  and  _495
REMARK  205  A    between atoms: _495  and  _496
REMARK  206  A    between atoms: _496  and  _497
REMARK  207  A    between atoms: _506  and  _508
REMARK  208  A    between atoms: _508  and  _509
REMARK  209  A    between atoms: _508  and  _511
REMARK  210  A    between atoms: _511  and  _512
REMARK                            x       y       z     vdW  Elec       q    Type
REMARK                         _______ _______ _______ _____ _____    ______ ____
ROOT
ATOM      1  O   HOH     1      24.797  17.836  10.595  0.00  0.00    +0.000 OA
ENDROOT
TORSDOF 0
REMARK  Name = ../refined-set-2016/2i0a/2i0a_pocket.pdb
REMARK  210 active torsions:
REMARK  status: ('A' for Active; 'I' for Inactive)
REMARK    1  A    between atoms: _1  and  _3
REMARK    2  A    between atoms: _3  and  _4
REMARK    3  A    between atoms: _3  and  _6
REMARK    4  A    between atoms: _6  and  _7
REMARK    5  A    between atoms: _7  and  _8
REMARK    6  A    between atoms: _8  and  _9
REMARK    7  A    between atoms: _18  and  _20
REMARK    8  A    between atoms: _20  and  _21
REMARK    9  A    between atoms: _20  and  _23
REMARK   10  A    between atoms: _23  and  _24
REMARK   11  A    between atoms: _27  and  _29
REMARK   12  A    between atoms: _29  and  _30
REMARK   13  A    between atoms: _29  and  _32
REMARK   14  A    between atoms: _32  and  _33
REMARK   15  A    between atoms: _36  and  _38
REMARK   16  A    between atoms: _38  and  _39
REMARK   17  A    between atoms: _38  and  _41
REMARK   18  A    between atoms: _41  and  _42
REMARK   19  A    between atoms: _45  and  _47
REMARK   20  A    between atoms: _47  and  _48
REMARK   21  A    between atoms: _47  and  _50
REMARK   22  A    between atoms: _50  and  _51
REMARK   23  A    between atoms: _54  and  _56
REMARK   24  A    between atoms: _56  and  _57
REMARK   25  A    between atoms: _59  and  _61
REMARK   26  A    between atoms: _61  and  _62
REMARK   27  A    between atoms: _65  and  _67
REMARK   28  A    between atoms: _67  and  _68
REMARK   29  A    between atoms: _67  and  _70
REMARK   30  A    between atoms: _70  and  _71
REMARK   31  A    between atoms: _74  and  _76
REMARK   32  A    between atoms: _76  and  _77
REMARK   33  A    between atoms: _76  and  _79
REMARK   34  A    between atoms: _79  and  _80
REMARK   35  A    between atoms: _83  and  _85
REMARK   36  A    between atoms: _85  and  _86
REMARK   37  A    between atoms: _85  and  _88
REMARK   38  A    between atoms: _88  and  _89
REMARK   39  A    between atoms: _92  and  _94
REMARK   40  A    between atoms: _94  and  _95
REMARK   41  A    between atoms: _94  and  _97
REMARK   42  A    between atoms: _100  and  _102
REMARK   43  A    between atoms: _102  and  _103
REMARK   44  A    between atoms: _102  and  _105
REMARK   45  A    between atoms: _105  and  _106
REMARK   46  A    between atoms: _106  and  _107
REMARK   47  A    between atoms: _109  and  _111
REMARK   48  A    between atoms: _111  and  _112
REMARK   49  A    between atoms: _111  and  _114
REMARK   50  A    between atoms: _114  and  _115
REMARK   51  A    between atoms: _118  and  _120
REMARK   52  A    between atoms: _120  and  _121
REMARK   53  A    between atoms: _123  and  _125
REMARK   54  A    between atoms: _125  and  _126
REMARK   55  A    between atoms: _128  and  _130
REMARK   56  A    between atoms: _130  and  _131
REMARK   57  A    between atoms: _130  and  _133
REMARK   58  A    between atoms: _133  and  _134
REMARK   59  A    between atoms: _137  and  _139
REMARK   60  A    between atoms: _139  and  _140
REMARK   61  A    between atoms: _142  and  _144
REMARK   62  A    between atoms: _144  and  _145
REMARK   63  A    between atoms: _147  and  _149
REMARK   64  A    between atoms: _149  and  _150
REMARK   65  A    between atoms: _149  and  _152
REMARK   66  A    between atoms: _152  and  _153
REMARK   67  A    between atoms: _159  and  _161
REMARK   68  A    between atoms: _161  and  _162
REMARK   69  A    between atoms: _161  and  _164
REMARK   70  A    between atoms: _164  and  _165
REMARK   71  A    between atoms: _169  and  _170
REMARK   72  A    between atoms: _175  and  _177
REMARK   73  A    between atoms: _177  and  _178
REMARK   74  A    between atoms: _177  and  _180
REMARK   75  A    between atoms: _183  and  _185
REMARK   76  A    between atoms: _185  and  _186
REMARK   77  A    between atoms: _185  and  _188
REMARK   78  A    between atoms: _188  and  _189
REMARK   79  A    between atoms: _194  and  _196
REMARK   80  A    between atoms: _196  and  _197
REMARK   81  A    between atoms: _196  and  _199
REMARK   82  A    between atoms: _199  and  _200
REMARK   83  A    between atoms: _203  and  _205
REMARK   84  A    between atoms: _205  and  _206
REMARK   85  A    between atoms: _205  and  _208
REMARK   86  A    between atoms: _208  and  _209
REMARK   87  A    between atoms: _212  and  _214
REMARK   88  A    between atoms: _214  and  _215
REMARK   89  A    between atoms: _217  and  _219
REMARK   90  A    between atoms: _219  and  _220
REMARK   91  A    between atoms: _219  and  _222
REMARK   92  A    between atoms: _222  and  _223
REMARK   93  A    between atoms: _223  and  _224
REMARK   94  A    between atoms: _224  and  _225
REMARK   95  A    between atoms: _234  and  _236
REMARK   96  A    between atoms: _236  and  _237
REMARK   97  A    between atoms: _236  and  _239
REMARK   98  A    between atoms: _239  and  _240
REMARK   99  A    between atoms: _240  and  _241
REMARK  100  A    between atoms: _241  and  _242
REMARK  101  A    between atoms: _251  and  _253
REMARK  102  A    between atoms: _253  and  _254
REMARK  103  A    between atoms: _253  and  _256
REMARK  104  A    between atoms: _256  and  _257
REMARK  105  A    between atoms: _260  and  _262
REMARK  106  A    between atoms: _262  and  _263
REMARK  107  A    between atoms: _262  and  _265
REMARK  108  A    between atoms: _265  and  _266
REMARK  109  A    between atoms: _269  and  _271
REMARK  110  A    between atoms: _271  and  _272
REMARK  111  A    between atoms: _271  and  _274
REMARK  112  A    between atoms: _274  and  _275
REMARK  113  A    between atoms: _278  and  _280
REMARK  114  A    between atoms: _280  and  _281
REMARK  115  A    between atoms: _280  and  _283
REMARK  116  A    between atoms: _283  and  _284
REMARK  117  A    between atoms: _287  and  _289
REMARK  118  A    between atoms: _289  and  _290
REMARK  119  A    between atoms: _292  and  _294
REMARK  120  A    between atoms: _294  and  _295
REMARK  121  A    between atoms: _298  and  _300
REMARK  122  A    between atoms: _300  and  _301
REMARK  123  A    between atoms: _300  and  _303
REMARK  124  A    between atoms: _303  and  _304
REMARK  125  A    between atoms: _307  and  _309
REMARK  126  A    between atoms: _309  and  _310
REMARK  127  A    between atoms: _309  and  _312
REMARK  128  A    between atoms: _312  and  _313
REMARK  129  A    between atoms: _316  and  _318
REMARK  130  A    between atoms: _318  and  _319
REMARK  131  A    between atoms: _318  and  _321
REMARK  132  A    between atoms: _321  and  _322
REMARK  133  A    between atoms: _325  and  _327
REMARK  134  A    between atoms: _327  and  _328
REMARK  135  A    between atoms: _327  and  _330
REMARK  136  A    between atoms: _333  and  _335
REMARK  137  A    between atoms: _335  and  _336
REMARK  138  A    between atoms: _335  and  _338
REMARK  139  A    between atoms: _338  and  _339
REMARK  140  A    between atoms: _339  and  _340
REMARK  141  A    between atoms: _340  and  _341
REMARK  142  A    between atoms: _341  and  _342
REMARK  143  A    between atoms: _346  and  _348
REMARK  144  A    between atoms: _348  and  _349
REMARK  145  A    between atoms: _348  and  _351
REMARK  146  A    between atoms: _351  and  _352
REMARK  147  A    between atoms: _352  and  _353
REMARK  148  A    between atoms: _355  and  _357
REMARK  149  A    between atoms: _357  and  _358
REMARK  150  A    between atoms: _357  and  _360
REMARK  151  A    between atoms: _360  and  _361
REMARK  152  A    between atoms: _364  and  _366
REMARK  153  A    between atoms: _366  and  _367
REMARK  154  A    between atoms: _369  and  _371
REMARK  155  A    between atoms: _371  and  _372
REMARK  156  A    between atoms: _374  and  _376
REMARK  157  A    between atoms: _376  and  _377
REMARK  158  A    between atoms: _376  and  _379
REMARK  159  A    between atoms: _379  and  _380
REMARK  160  A    between atoms: _383  and  _385
REMARK  161  A    between atoms: _385  and  _386
REMARK  162  A    between atoms: _388  and  _390
REMARK  163  A    between atoms: _390  and  _391
REMARK  164  A    between atoms: _393  and  _395
REMARK  165  A    between atoms: _395  and  _396
REMARK  166  A    between atoms: _395  and  _398
REMARK  167  A    between atoms: _398  and  _399
REMARK  168  A    between atoms: _405  and  _407
REMARK  169  A    between atoms: _407  and  _408
REMARK  170  A    between atoms: _407  and  _410
REMARK  171  A    between atoms: _410  and  _411
REMARK  172  A    between atoms: _414  and  _416
REMARK  173  A    between atoms: _416  and  _417
REMARK  174  A    between atoms: _416  and  _419
REMARK  175  A    between atoms: _422  and  _424
REMARK  176  A    between atoms: _424  and  _425
REMARK  177  A    between atoms: _424  and  _427
REMARK  178  A    between atoms: _427  and  _428
REMARK  179  A    between atoms: _431  and  _433
REMARK  180  A    between atoms: _433  and  _434
REMARK  181  A    between atoms: _433  and  _436
REMARK  182  A    between atoms: _436  and  _437
REMARK  183  A    between atoms: _441  and  _442
REMARK  184  A    between atoms: _447  and  _449
REMARK  185  A    between atoms: _449  and  _450
REMARK  186  A    between atoms: _449  and  _452
REMARK  187  A    between atoms: _455  and  _457
REMARK  188  A    between atoms: _457  and  _458
REMARK  189  A    between atoms: _457  and  _460
REMARK  190  A    between atoms: _460  and  _461
REMARK  191  A    between atoms: _466  and  _468
REMARK  192  A    between atoms: _468  and  _469
REMARK  193  A    between atoms: _468  and  _471
REMARK  194  A    between atoms: _471  and  _472
REMARK  195  A    between atoms: _475  and  _477
REMARK  196  A    between atoms: _477  and  _478
REMARK  197  A    between atoms: _477  and  _480
REMARK  198  A    between atoms: _480  and  _481
REMARK  199  A    between atoms: _484  and  _486
REMARK  200  A    between atoms: _486  and  _487
REMARK  201  A    between atoms: _489  and  _491
REMARK  202  A    between atoms: _491  and  _492
REMARK  203  A    between atoms: _491  and  _494
REMARK  204  A    between atoms: _494  and  _495
REMARK  205  A    between atoms: _495  and  _496
REMARK  206  A    between atoms: _496  and  _497
REMARK  207  A    between atoms: _506  and  _508
REMARK  208  A    between atoms: _508  and  _509
REMARK  209  A    between atoms: _508  and  _511
REMARK  210  A    between atoms: _511  and  _512
REMARK                            x       y       z     vdW  Elec       q    Type
REMARK                         _______ _______ _______ _____ _____    ______ ____
ROOT
ATOM      1  O   HOH     1      22.781  35.868  20.830  0.00  0.00    +0.000 OA
ENDROOT
TORSDOF 0
REMARK  Name = ../refined-set-2016/2i0a/2i0a_pocket.pdb
REMARK  210 active torsions:
REMARK  status: ('A' for Active; 'I' for Inactive)
REMARK    1  A    between atoms: _1  and  _3
REMARK    2  A    between atoms: _3  and  _4
REMARK    3  A    between atoms: _3  and  _6
REMARK    4  A    between atoms: _6  and  _7
REMARK    5  A    between atoms: _7  and  _8
REMARK    6  A    between atoms: _8  and  _9
REMARK    7  A    between atoms: _18  and  _20
REMARK    8  A    between atoms: _20  and  _21
REMARK    9  A    between atoms: _20  and  _23
REMARK   10  A    between atoms: _23  and  _24
REMARK   11  A    between atoms: _27  and  _29
REMARK   12  A    between atoms: _29  and  _30
REMARK   13  A    between atoms: _29  and  _32
REMARK   14  A    between atoms: _32  and  _33
REMARK   15  A    between atoms: _36  and  _38
REMARK   16  A    between atoms: _38  and  _39
REMARK   17  A    between atoms: _38  and  _41
REMARK   18  A    between atoms: _41  and  _42
REMARK   19  A    between atoms: _45  and  _47
REMARK   20  A    between atoms: _47  and  _48
REMARK   21  A    between atoms: _47  and  _50
REMARK   22  A    between atoms: _50  and  _51
REMARK   23  A    between atoms: _54  and  _56
REMARK   24  A    between atoms: _56  and  _57
REMARK   25  A    between atoms: _59  and  _61
REMARK   26  A    between atoms: _61  and  _62
REMARK   27  A    between atoms: _65  and  _67
REMARK   28  A    between atoms: _67  and  _68
REMARK   29  A    between atoms: _67  and  _70
REMARK   30  A    between atoms: _70  and  _71
REMARK   31  A    between atoms: _74  and  _76
REMARK   32  A    between atoms: _76  and  _77
REMARK   33  A    between atoms: _76  and  _79
REMARK   34  A    between atoms: _79  and  _80
REMARK   35  A    between atoms: _83  and  _85
REMARK   36  A    between atoms: _85  and  _86
REMARK   37  A    between atoms: _85  and  _88
REMARK   38  A    between atoms: _88  and  _89
REMARK   39  A    between atoms: _92  and  _94
REMARK   40  A    between atoms: _94  and  _95
REMARK   41  A    between atoms: _94  and  _97
REMARK   42  A    between atoms: _100  and  _102
REMARK   43  A    between atoms: _102  and  _103
REMARK   44  A    between atoms: _102  and  _105
REMARK   45  A    between atoms: _105  and  _106
REMARK   46  A    between atoms: _106  and  _107
REMARK   47  A    between atoms: _109  and  _111
REMARK   48  A    between atoms: _111  and  _112
REMARK   49  A    between atoms: _111  and  _114
REMARK   50  A    between atoms: _114  and  _115
REMARK   51  A    between atoms: _118  and  _120
REMARK   52  A    between atoms: _120  and  _121
REMARK   53  A    between atoms: _123  and  _125
REMARK   54  A    between atoms: _125  and  _126
REMARK   55  A    between atoms: _128  and  _130
REMARK   56  A    between atoms: _130  and  _131
REMARK   57  A    between atoms: _130  and  _133
REMARK   58  A    between atoms: _133  and  _134
REMARK   59  A    between atoms: _137  and  _139
REMARK   60  A    between atoms: _139  and  _140
REMARK   61  A    between atoms: _142  and  _144
REMARK   62  A    between atoms: _144  and  _145
REMARK   63  A    between atoms: _147  and  _149
REMARK   64  A    between atoms: _149  and  _150
REMARK   65  A    between atoms: _149  and  _152
REMARK   66  A    between atoms: _152  and  _153
REMARK   67  A    between atoms: _159  and  _161
REMARK   68  A    between atoms: _161  and  _162
REMARK   69  A    between atoms: _161  and  _164
REMARK   70  A    between atoms: _164  and  _165
REMARK   71  A    between atoms: _169  and  _170
REMARK   72  A    between atoms: _175  and  _177
REMARK   73  A    between atoms: _177  and  _178
REMARK   74  A    between atoms: _177  and  _180
REMARK   75  A    between atoms: _183  and  _185
REMARK   76  A    between atoms: _185  and  _186
REMARK   77  A    between atoms: _185  and  _188
REMARK   78  A    between atoms: _188  and  _189
REMARK   79  A    between atoms: _194  and  _196
REMARK   80  A    between atoms: _196  and  _197
REMARK   81  A    between atoms: _196  and  _199
REMARK   82  A    between atoms: _199  and  _200
REMARK   83  A    between atoms: _203  and  _205
REMARK   84  A    between atoms: _205  and  _206
REMARK   85  A    between atoms: _205  and  _208
REMARK   86  A    between atoms: _208  and  _209
REMARK   87  A    between atoms: _212  and  _214
REMARK   88  A    between atoms: _214  and  _215
REMARK   89  A    between atoms: _217  and  _219
REMARK   90  A    between atoms: _219  and  _220
REMARK   91  A    between atoms: _219  and  _222
REMARK   92  A    between atoms: _222  and  _223
REMARK   93  A    between atoms: _223  and  _224
REMARK   94  A    between atoms: _224  and  _225
REMARK   95  A    between atoms: _234  and  _236
REMARK   96  A    between atoms: _236  and  _237
REMARK   97  A    between atoms: _236  and  _239
REMARK   98  A    between atoms: _239  and  _240
REMARK   99  A    between atoms: _240  and  _241
REMARK  100  A    between atoms: _241  and  _242
REMARK  101  A    between atoms: _251  and  _253
REMARK  102  A    between atoms: _253  and  _254
REMARK  103  A    between atoms: _253  and  _256
REMARK  104  A    between atoms: _256  and  _257
REMARK  105  A    between atoms: _260  and  _262
REMARK  106  A    between atoms: _262  and  _263
REMARK  107  A    between atoms: _262  and  _265
REMARK  108  A    between atoms: _265  and  _266
REMARK  109  A    between atoms: _269  and  _271
REMARK  110  A    between atoms: _271  and  _272
REMARK  111  A    between atoms: _271  and  _274
REMARK  112  A    between atoms: _274  and  _275
REMARK  113  A    between atoms: _278  and  _280
REMARK  114  A    between atoms: _280  and  _281
REMARK  115  A    between atoms: _280  and  _283
REMARK  116  A    between atoms: _283  and  _284
REMARK  117  A    between atoms: _287  and  _289
REMARK  118  A    between atoms: _289  and  _290
REMARK  119  A    between atoms: _292  and  _294
REMARK  120  A    between atoms: _294  and  _295
REMARK  121  A    between atoms: _298  and  _300
REMARK  122  A    between atoms: _300  and  _301
REMARK  123  A    between atoms: _300  and  _303
REMARK  124  A    between atoms: _303  and  _304
REMARK  125  A    between atoms: _307  and  _309
REMARK  126  A    between atoms: _309  and  _310
REMARK  127  A    between atoms: _309  and  _312
REMARK  128  A    between atoms: _312  and  _313
REMARK  129  A    between atoms: _316  and  _318
REMARK  130  A    between atoms: _318  and  _319
REMARK  131  A    between atoms: _318  and  _321
REMARK  132  A    between atoms: _321  and  _322
REMARK  133  A    between atoms: _325  and  _327
REMARK  134  A    between atoms: _327  and  _328
REMARK  135  A    between atoms: _327  and  _330
REMARK  136  A    between atoms: _333  and  _335
REMARK  137  A    between atoms: _335  and  _336
REMARK  138  A    between atoms: _335  and  _338
REMARK  139  A    between atoms: _338  and  _339
REMARK  140  A    between atoms: _339  and  _340
REMARK  141  A    between atoms: _340  and  _341
REMARK  142  A    between atoms: _341  and  _342
REMARK  143  A    between atoms: _346  and  _348
REMARK  144  A    between atoms: _348  and  _349
REMARK  145  A    between atoms: _348  and  _351
REMARK  146  A    between atoms: _351  and  _352
REMARK  147  A    between atoms: _352  and  _353
REMARK  148  A    between atoms: _355  and  _357
REMARK  149  A    between atoms: _357  and  _358
REMARK  150  A    between atoms: _357  and  _360
REMARK  151  A    between atoms: _360  and  _361
REMARK  152  A    between atoms: _364  and  _366
REMARK  153  A    between atoms: _366  and  _367
REMARK  154  A    between atoms: _369  and  _371
REMARK  155  A    between atoms: _371  and  _372
REMARK  156  A    between atoms: _374  and  _376
REMARK  157  A    between atoms: _376  and  _377
REMARK  158  A    between atoms: _376  and  _379
REMARK  159  A    between atoms: _379  and  _380
REMARK  160  A    between atoms: _383  and  _385
REMARK  161  A    between atoms: _385  and  _386
REMARK  162  A    between atoms: _388  and  _390
REMARK  163  A    between atoms: _390  and  _391
REMARK  164  A    between atoms: _393  and  _395
REMARK  165  A    between atoms: _395  and  _396
REMARK  166  A    between atoms: _395  and  _398
REMARK  167  A    between atoms: _398  and  _399
REMARK  168  A    between atoms: _405  and  _407
REMARK  169  A    between atoms: _407  and  _408
REMARK  170  A    between atoms: _407  and  _410
REMARK  171  A    between atoms: _410  and  _411
REMARK  172  A    between atoms: _414  and  _416
REMARK  173  A    between atoms: _416  and  _417
REMARK  174  A    between atoms: _416  and  _419
REMARK  175  A    between atoms: _422  and  _424
REMARK  176  A    between atoms: _424  and  _425
REMARK  177  A    between atoms: _424  and  _427
REMARK  178  A    between atoms: _427  and  _428
REMARK  179  A    between atoms: _431  and  _433
REMARK  180  A    between atoms: _433  and  _434
REMARK  181  A    between atoms: _433  and  _436
REMARK  182  A    between atoms: _436  and  _437
REMARK  183  A    between atoms: _441  and  _442
REMARK  184  A    between atoms: _447  and  _449
REMARK  185  A    between atoms: _449  and  _450
REMARK  186  A    between atoms: _449  and  _452
REMARK  187  A    between atoms: _455  and  _457
REMARK  188  A    between atoms: _457  and  _458
REMARK  189  A    between atoms: _457  and  _460
REMARK  190  A    between atoms: _460  and  _461
REMARK  191  A    between atoms: _466  and  _468
REMARK  192  A    between atoms: _468  and  _469
REMARK  193  A    between atoms: _468  and  _471
REMARK  194  A    between atoms: _471  and  _472
REMARK  195  A    between atoms: _475  and  _477
REMARK  196  A    between atoms: _477  and  _478
REMARK  197  A    between atoms: _477  and  _480
REMARK  198  A    between atoms: _480  and  _481
REMARK  199  A    between atoms: _484  and  _486
REMARK  200  A    between atoms: _486  and  _487
REMARK  201  A    between atoms: _489  and  _491
REMARK  202  A    between atoms: _491  and  _492
REMARK  203  A    between atoms: _491  and  _494
REMARK  204  A    between atoms: _494  and  _495
REMARK  205  A    between atoms: _495  and  _496
REMARK  206  A    between atoms: _496  and  _497
REMARK  207  A    between atoms: _506  and  _508
REMARK  208  A    between atoms: _508  and  _509
REMARK  209  A    between atoms: _508  and  _511
REMARK  210  A    between atoms: _511  and  _512
REMARK                            x       y       z     vdW  Elec       q    Type
REMARK                         _______ _______ _______ _____ _____    ______ ____
ROOT
ATOM      1  O   HOH     1      20.121  32.134  23.505  0.00  0.00    +0.000 OA
ENDROOT
TORSDOF 0
REMARK  Name = ../refined-set-2016/2i0a/2i0a_pocket.pdb
REMARK  210 active torsions:
REMARK  status: ('A' for Active; 'I' for Inactive)
REMARK    1  A    between atoms: _1  and  _3
REMARK    2  A    between atoms: _3  and  _4
REMARK    3  A    between atoms: _3  and  _6
REMARK    4  A    between atoms: _6  and  _7
REMARK    5  A    between atoms: _7  and  _8
REMARK    6  A    between atoms: _8  and  _9
REMARK    7  A    between atoms: _18  and  _20
REMARK    8  A    between atoms: _20  and  _21
REMARK    9  A    between atoms: _20  and  _23
REMARK   10  A    between atoms: _23  and  _24
REMARK   11  A    between atoms: _27  and  _29
REMARK   12  A    between atoms: _29  and  _30
REMARK   13  A    between atoms: _29  and  _32
REMARK   14  A    between atoms: _32  and  _33
REMARK   15  A    between atoms: _36  and  _38
REMARK   16  A    between atoms: _38  and  _39
REMARK   17  A    between atoms: _38  and  _41
REMARK   18  A    between atoms: _41  and  _42
REMARK   19  A    between atoms: _45  and  _47
REMARK   20  A    between atoms: _47  and  _48
REMARK   21  A    between atoms: _47  and  _50
REMARK   22  A    between atoms: _50  and  _51
REMARK   23  A    between atoms: _54  and  _56
REMARK   24  A    between atoms: _56  and  _57
REMARK   25  A    between atoms: _59  and  _61
REMARK   26  A    between atoms: _61  and  _62
REMARK   27  A    between atoms: _65  and  _67
REMARK   28  A    between atoms: _67  and  _68
REMARK   29  A    between atoms: _67  and  _70
REMARK   30  A    between atoms: _70  and  _71
REMARK   31  A    between atoms: _74  and  _76
REMARK   32  A    between atoms: _76  and  _77
REMARK   33  A    between atoms: _76  and  _79
REMARK   34  A    between atoms: _79  and  _80
REMARK   35  A    between atoms: _83  and  _85
REMARK   36  A    between atoms: _85  and  _86
REMARK   37  A    between atoms: _85  and  _88
REMARK   38  A    between atoms: _88  and  _89
REMARK   39  A    between atoms: _92  and  _94
REMARK   40  A    between atoms: _94  and  _95
REMARK   41  A    between atoms: _94  and  _97
REMARK   42  A    between atoms: _100  and  _102
REMARK   43  A    between atoms: _102  and  _103
REMARK   44  A    between atoms: _102  and  _105
REMARK   45  A    between atoms: _105  and  _106
REMARK   46  A    between atoms: _106  and  _107
REMARK   47  A    between atoms: _109  and  _111
REMARK   48  A    between atoms: _111  and  _112
REMARK   49  A    between atoms: _111  and  _114
REMARK   50  A    between atoms: _114  and  _115
REMARK   51  A    between atoms: _118  and  _120
REMARK   52  A    between atoms: _120  and  _121
REMARK   53  A    between atoms: _123  and  _125
REMARK   54  A    between atoms: _125  and  _126
REMARK   55  A    between atoms: _128  and  _130
REMARK   56  A    between atoms: _130  and  _131
REMARK   57  A    between atoms: _130  and  _133
REMARK   58  A    between atoms: _133  and  _134
REMARK   59  A    between atoms: _137  and  _139
REMARK   60  A    between atoms: _139  and  _140
REMARK   61  A    between atoms: _142  and  _144
REMARK   62  A    between atoms: _144  and  _145
REMARK   63  A    between atoms: _147  and  _149
REMARK   64  A    between atoms: _149  and  _150
REMARK   65  A    between atoms: _149  and  _152
REMARK   66  A    between atoms: _152  and  _153
REMARK   67  A    between atoms: _159  and  _161
REMARK   68  A    between atoms: _161  and  _162
REMARK   69  A    between atoms: _161  and  _164
REMARK   70  A    between atoms: _164  and  _165
REMARK   71  A    between atoms: _169  and  _170
REMARK   72  A    between atoms: _175  and  _177
REMARK   73  A    between atoms: _177  and  _178
REMARK   74  A    between atoms: _177  and  _180
REMARK   75  A    between atoms: _183  and  _185
REMARK   76  A    between atoms: _185  and  _186
REMARK   77  A    between atoms: _185  and  _188
REMARK   78  A    between atoms: _188  and  _189
REMARK   79  A    between atoms: _194  and  _196
REMARK   80  A    between atoms: _196  and  _197
REMARK   81  A    between atoms: _196  and  _199
REMARK   82  A    between atoms: _199  and  _200
REMARK   83  A    between atoms: _203  and  _205
REMARK   84  A    between atoms: _205  and  _206
REMARK   85  A    between atoms: _205  and  _208
REMARK   86  A    between atoms: _208  and  _209
REMARK   87  A    between atoms: _212  and  _214
REMARK   88  A    between atoms: _214  and  _215
REMARK   89  A    between atoms: _217  and  _219
REMARK   90  A    between atoms: _219  and  _220
REMARK   91  A    between atoms: _219  and  _222
REMARK   92  A    between atoms: _222  and  _223
REMARK   93  A    between atoms: _223  and  _224
REMARK   94  A    between atoms: _224  and  _225
REMARK   95  A    between atoms: _234  and  _236
REMARK   96  A    between atoms: _236  and  _237
REMARK   97  A    between atoms: _236  and  _239
REMARK   98  A    between atoms: _239  and  _240
REMARK   99  A    between atoms: _240  and  _241
REMARK  100  A    between atoms: _241  and  _242
REMARK  101  A    between atoms: _251  and  _253
REMARK  102  A    between atoms: _253  and  _254
REMARK  103  A    between atoms: _253  and  _256
REMARK  104  A    between atoms: _256  and  _257
REMARK  105  A    between atoms: _260  and  _262
REMARK  106  A    between atoms: _262  and  _263
REMARK  107  A    between atoms: _262  and  _265
REMARK  108  A    between atoms: _265  and  _266
REMARK  109  A    between atoms: _269  and  _271
REMARK  110  A    between atoms: _271  and  _272
REMARK  111  A    between atoms: _271  and  _274
REMARK  112  A    between atoms: _274  and  _275
REMARK  113  A    between atoms: _278  and  _280
REMARK  114  A    between atoms: _280  and  _281
REMARK  115  A    between atoms: _280  and  _283
REMARK  116  A    between atoms: _283  and  _284
REMARK  117  A    between atoms: _287  and  _289
REMARK  118  A    between atoms: _289  and  _290
REMARK  119  A    between atoms: _292  and  _294
REMARK  120  A    between atoms: _294  and  _295
REMARK  121  A    between atoms: _298  and  _300
REMARK  122  A    between atoms: _300  and  _301
REMARK  123  A    between atoms: _300  and  _303
REMARK  124  A    between atoms: _303  and  _304
REMARK  125  A    between atoms: _307  and  _309
REMARK  126  A    between atoms: _309  and  _310
REMARK  127  A    between atoms: _309  and  _312
REMARK  128  A    between atoms: _312  and  _313
REMARK  129  A    between atoms: _316  and  _318
REMARK  130  A    between atoms: _318  and  _319
REMARK  131  A    between atoms: _318  and  _321
REMARK  132  A    between atoms: _321  and  _322
REMARK  133  A    between atoms: _325  and  _327
REMARK  134  A    between atoms: _327  and  _328
REMARK  135  A    between atoms: _327  and  _330
REMARK  136  A    between atoms: _333  and  _335
REMARK  137  A    between atoms: _335  and  _336
REMARK  138  A    between atoms: _335  and  _338
REMARK  139  A    between atoms: _338  and  _339
REMARK  140  A    between atoms: _339  and  _340
REMARK  141  A    between atoms: _340  and  _341
REMARK  142  A    between atoms: _341  and  _342
REMARK  143  A    between atoms: _346  and  _348
REMARK  144  A    between atoms: _348  and  _349
REMARK  145  A    between atoms: _348  and  _351
REMARK  146  A    between atoms: _351  and  _352
REMARK  147  A    between atoms: _352  and  _353
REMARK  148  A    between atoms: _355  and  _357
REMARK  149  A    between atoms: _357  and  _358
REMARK  150  A    between atoms: _357  and  _360
REMARK  151  A    between atoms: _360  and  _361
REMARK  152  A    between atoms: _364  and  _366
REMARK  153  A    between atoms: _366  and  _367
REMARK  154  A    between atoms: _369  and  _371
REMARK  155  A    between atoms: _371  and  _372
REMARK  156  A    between atoms: _374  and  _376
REMARK  157  A    between atoms: _376  and  _377
REMARK  158  A    between atoms: _376  and  _379
REMARK  159  A    between atoms: _379  and  _380
REMARK  160  A    between atoms: _383  and  _385
REMARK  161  A    between atoms: _385  and  _386
REMARK  162  A    between atoms: _388  and  _390
REMARK  163  A    between atoms: _390  and  _391
REMARK  164  A    between atoms: _393  and  _395
REMARK  165  A    between atoms: _395  and  _396
REMARK  166  A    between atoms: _395  and  _398
REMARK  167  A    between atoms: _398  and  _399
REMARK  168  A    between atoms: _405  and  _407
REMARK  169  A    between atoms: _407  and  _408
REMARK  170  A    between atoms: _407  and  _410
REMARK  171  A    between atoms: _410  and  _411
REMARK  172  A    between atoms: _414  and  _416
REMARK  173  A    between atoms: _416  and  _417
REMARK  174  A    between atoms: _416  and  _419
REMARK  175  A    between atoms: _422  and  _424
REMARK  176  A    between atoms: _424  and  _425
REMARK  177  A    between atoms: _424  and  _427
REMARK  178  A    between atoms: _427  and  _428
REMARK  179  A    between atoms: _431  and  _433
REMARK  180  A    between atoms: _433  and  _434
REMARK  181  A    between atoms: _433  and  _436
REMARK  182  A    between atoms: _436  and  _437
REMARK  183  A    between atoms: _441  and  _442
REMARK  184  A    between atoms: _447  and  _449
REMARK  185  A    between atoms: _449  and  _450
REMARK  186  A    between atoms: _449  and  _452
REMARK  187  A    between atoms: _455  and  _457
REMARK  188  A    between atoms: _457  and  _458
REMARK  189  A    between atoms: _457  and  _460
REMARK  190  A    between atoms: _460  and  _461
REMARK  191  A    between atoms: _466  and  _468
REMARK  192  A    between atoms: _468  and  _469
REMARK  193  A    between atoms: _468  and  _471
REMARK  194  A    between atoms: _471  and  _472
REMARK  195  A    between atoms: _475  and  _477
REMARK  196  A    between atoms: _477  and  _478
REMARK  197  A    between atoms: _477  and  _480
REMARK  198  A    between atoms: _480  and  _481
REMARK  199  A    between atoms: _484  and  _486
REMARK  200  A    between atoms: _486  and  _487
REMARK  201  A    between atoms: _489  and  _491
REMARK  202  A    between atoms: _491  and  _492
REMARK  203  A    between atoms: _491  and  _494
REMARK  204  A    between atoms: _494  and  _495
REMARK  205  A    between atoms: _495  and  _496
REMARK  206  A    between atoms: _496  and  _497
REMARK  207  A    between atoms: _506  and  _508
REMARK  208  A    between atoms: _508  and  _509
REMARK  209  A    between atoms: _508  and  _511
REMARK  210  A    between atoms: _511  and  _512
REMARK                            x       y       z     vdW  Elec       q    Type
REMARK                         _______ _______ _______ _____ _____    ______ ____
ROOT
ATOM      1  O   HOH     1      20.721  34.071  21.704  0.00  0.00    +0.000 OA
ENDROOT
TORSDOF 0
REMARK  Name = ../refined-set-2016/2i0a/2i0a_pocket.pdb
REMARK  210 active torsions:
REMARK  status: ('A' for Active; 'I' for Inactive)
REMARK    1  A    between atoms: _1  and  _3
REMARK    2  A    between atoms: _3  and  _4
REMARK    3  A    between atoms: _3  and  _6
REMARK    4  A    between atoms: _6  and  _7
REMARK    5  A    between atoms: _7  and  _8
REMARK    6  A    between atoms: _8  and  _9
REMARK    7  A    between atoms: _18  and  _20
REMARK    8  A    between atoms: _20  and  _21
REMARK    9  A    between atoms: _20  and  _23
REMARK   10  A    between atoms: _23  and  _24
REMARK   11  A    between atoms: _27  and  _29
REMARK   12  A    between atoms: _29  and  _30
REMARK   13  A    between atoms: _29  and  _32
REMARK   14  A    between atoms: _32  and  _33
REMARK   15  A    between atoms: _36  and  _38
REMARK   16  A    between atoms: _38  and  _39
REMARK   17  A    between atoms: _38  and  _41
REMARK   18  A    between atoms: _41  and  _42
REMARK   19  A    between atoms: _45  and  _47
REMARK   20  A    between atoms: _47  and  _48
REMARK   21  A    between atoms: _47  and  _50
REMARK   22  A    between atoms: _50  and  _51
REMARK   23  A    between atoms: _54  and  _56
REMARK   24  A    between atoms: _56  and  _57
REMARK   25  A    between atoms: _59  and  _61
REMARK   26  A    between atoms: _61  and  _62
REMARK   27  A    between atoms: _65  and  _67
REMARK   28  A    between atoms: _67  and  _68
REMARK   29  A    between atoms: _67  and  _70
REMARK   30  A    between atoms: _70  and  _71
REMARK   31  A    between atoms: _74  and  _76
REMARK   32  A    between atoms: _76  and  _77
REMARK   33  A    between atoms: _76  and  _79
REMARK   34  A    between atoms: _79  and  _80
REMARK   35  A    between atoms: _83  and  _85
REMARK   36  A    between atoms: _85  and  _86
REMARK   37  A    between atoms: _85  and  _88
REMARK   38  A    between atoms: _88  and  _89
REMARK   39  A    between atoms: _92  and  _94
REMARK   40  A    between atoms: _94  and  _95
REMARK   41  A    between atoms: _94  and  _97
REMARK   42  A    between atoms: _100  and  _102
REMARK   43  A    between atoms: _102  and  _103
REMARK   44  A    between atoms: _102  and  _105
REMARK   45  A    between atoms: _105  and  _106
REMARK   46  A    between atoms: _106  and  _107
REMARK   47  A    between atoms: _109  and  _111
REMARK   48  A    between atoms: _111  and  _112
REMARK   49  A    between atoms: _111  and  _114
REMARK   50  A    between atoms: _114  and  _115
REMARK   51  A    between atoms: _118  and  _120
REMARK   52  A    between atoms: _120  and  _121
REMARK   53  A    between atoms: _123  and  _125
REMARK   54  A    between atoms: _125  and  _126
REMARK   55  A    between atoms: _128  and  _130
REMARK   56  A    between atoms: _130  and  _131
REMARK   57  A    between atoms: _130  and  _133
REMARK   58  A    between atoms: _133  and  _134
REMARK   59  A    between atoms: _137  and  _139
REMARK   60  A    between atoms: _139  and  _140
REMARK   61  A    between atoms: _142  and  _144
REMARK   62  A    between atoms: _144  and  _145
REMARK   63  A    between atoms: _147  and  _149
REMARK   64  A    between atoms: _149  and  _150
REMARK   65  A    between atoms: _149  and  _152
REMARK   66  A    between atoms: _152  and  _153
REMARK   67  A    between atoms: _159  and  _161
REMARK   68  A    between atoms: _161  and  _162
REMARK   69  A    between atoms: _161  and  _164
REMARK   70  A    between atoms: _164  and  _165
REMARK   71  A    between atoms: _169  and  _170
REMARK   72  A    between atoms: _175  and  _177
REMARK   73  A    between atoms: _177  and  _178
REMARK   74  A    between atoms: _177  and  _180
REMARK   75  A    between atoms: _183  and  _185
REMARK   76  A    between atoms: _185  and  _186
REMARK   77  A    between atoms: _185  and  _188
REMARK   78  A    between atoms: _188  and  _189
REMARK   79  A    between atoms: _194  and  _196
REMARK   80  A    between atoms: _196  and  _197
REMARK   81  A    between atoms: _196  and  _199
REMARK   82  A    between atoms: _199  and  _200
REMARK   83  A    between atoms: _203  and  _205
REMARK   84  A    between atoms: _205  and  _206
REMARK   85  A    between atoms: _205  and  _208
REMARK   86  A    between atoms: _208  and  _209
REMARK   87  A    between atoms: _212  and  _214
REMARK   88  A    between atoms: _214  and  _215
REMARK   89  A    between atoms: _217  and  _219
REMARK   90  A    between atoms: _219  and  _220
REMARK   91  A    between atoms: _219  and  _222
REMARK   92  A    between atoms: _222  and  _223
REMARK   93  A    between atoms: _223  and  _224
REMARK   94  A    between atoms: _224  and  _225
REMARK   95  A    between atoms: _234  and  _236
REMARK   96  A    between atoms: _236  and  _237
REMARK   97  A    between atoms: _236  and  _239
REMARK   98  A    between atoms: _239  and  _240
REMARK   99  A    between atoms: _240  and  _241
REMARK  100  A    between atoms: _241  and  _242
REMARK  101  A    between atoms: _251  and  _253
REMARK  102  A    between atoms: _253  and  _254
REMARK  103  A    between atoms: _253  and  _256
REMARK  104  A    between atoms: _256  and  _257
REMARK  105  A    between atoms: _260  and  _262
REMARK  106  A    between atoms: _262  and  _263
REMARK  107  A    between atoms: _262  and  _265
REMARK  108  A    between atoms: _265  and  _266
REMARK  109  A    between atoms: _269  and  _271
REMARK  110  A    between atoms: _271  and  _272
REMARK  111  A    between atoms: _271  and  _274
REMARK  112  A    between atoms: _274  and  _275
REMARK  113  A    between atoms: _278  and  _280
REMARK  114  A    between atoms: _280  and  _281
REMARK  115  A    between atoms: _280  and  _283
REMARK  116  A    between atoms: _283  and  _284
REMARK  117  A    between atoms: _287  and  _289
REMARK  118  A    between atoms: _289  and  _290
REMARK  119  A    between atoms: _292  and  _294
REMARK  120  A    between atoms: _294  and  _295
REMARK  121  A    between atoms: _298  and  _300
REMARK  122  A    between atoms: _300  and  _301
REMARK  123  A    between atoms: _300  and  _303
REMARK  124  A    between atoms: _303  and  _304
REMARK  125  A    between atoms: _307  and  _309
REMARK  126  A    between atoms: _309  and  _310
REMARK  127  A    between atoms: _309  and  _312
REMARK  128  A    between atoms: _312  and  _313
REMARK  129  A    between atoms: _316  and  _318
REMARK  130  A    between atoms: _318  and  _319
REMARK  131  A    between atoms: _318  and  _321
REMARK  132  A    between atoms: _321  and  _322
REMARK  133  A    between atoms: _325  and  _327
REMARK  134  A    between atoms: _327  and  _328
REMARK  135  A    between atoms: _327  and  _330
REMARK  136  A    between atoms: _333  and  _335
REMARK  137  A    between atoms: _335  and  _336
REMARK  138  A    between atoms: _335  and  _338
REMARK  139  A    between atoms: _338  and  _339
REMARK  140  A    between atoms: _339  and  _340
REMARK  141  A    between atoms: _340  and  _341
REMARK  142  A    between atoms: _341  and  _342
REMARK  143  A    between atoms: _346  and  _348
REMARK  144  A    between atoms: _348  and  _349
REMARK  145  A    between atoms: _348  and  _351
REMARK  146  A    between atoms: _351  and  _352
REMARK  147  A    between atoms: _352  and  _353
REMARK  148  A    between atoms: _355  and  _357
REMARK  149  A    between atoms: _357  and  _358
REMARK  150  A    between atoms: _357  and  _360
REMARK  151  A    between atoms: _360  and  _361
REMARK  152  A    between atoms: _364  and  _366
REMARK  153  A    between atoms: _366  and  _367
REMARK  154  A    between atoms: _369  and  _371
REMARK  155  A    between atoms: _371  and  _372
REMARK  156  A    between atoms: _374  and  _376
REMARK  157  A    between atoms: _376  and  _377
REMARK  158  A    between atoms: _376  and  _379
REMARK  159  A    between atoms: _379  and  _380
REMARK  160  A    between atoms: _383  and  _385
REMARK  161  A    between atoms: _385  and  _386
REMARK  162  A    between atoms: _388  and  _390
REMARK  163  A    between atoms: _390  and  _391
REMARK  164  A    between atoms: _393  and  _395
REMARK  165  A    between atoms: _395  and  _396
REMARK  166  A    between atoms: _395  and  _398
REMARK  167  A    between atoms: _398  and  _399
REMARK  168  A    between atoms: _405  and  _407
REMARK  169  A    between atoms: _407  and  _408
REMARK  170  A    between atoms: _407  and  _410
REMARK  171  A    between atoms: _410  and  _411
REMARK  172  A    between atoms: _414  and  _416
REMARK  173  A    between atoms: _416  and  _417
REMARK  174  A    between atoms: _416  and  _419
REMARK  175  A    between atoms: _422  and  _424
REMARK  176  A    between atoms: _424  and  _425
REMARK  177  A    between atoms: _424  and  _427
REMARK  178  A    between atoms: _427  and  _428
REMARK  179  A    between atoms: _431  and  _433
REMARK  180  A    between atoms: _433  and  _434
REMARK  181  A    between atoms: _433  and  _436
REMARK  182  A    between atoms: _436  and  _437
REMARK  183  A    between atoms: _441  and  _442
REMARK  184  A    between atoms: _447  and  _449
REMARK  185  A    between atoms: _449  and  _450
REMARK  186  A    between atoms: _449  and  _452
REMARK  187  A    between atoms: _455  and  _457
REMARK  188  A    between atoms: _457  and  _458
REMARK  189  A    between atoms: _457  and  _460
REMARK  190  A    between atoms: _460  and  _461
REMARK  191  A    between atoms: _466  and  _468
REMARK  192  A    between atoms: _468  and  _469
REMARK  193  A    between atoms: _468  and  _471
REMARK  194  A    between atoms: _471  and  _472
REMARK  195  A    between atoms: _475  and  _477
REMARK  196  A    between atoms: _477  and  _478
REMARK  197  A    between atoms: _477  and  _480
REMARK  198  A    between atoms: _480  and  _481
REMARK  199  A    between atoms: _484  and  _486
REMARK  200  A    between atoms: _486  and  _487
REMARK  201  A    between atoms: _489  and  _491
REMARK  202  A    between atoms: _491  and  _492
REMARK  203  A    between atoms: _491  and  _494
REMARK  204  A    between atoms: _494  and  _495
REMARK  205  A    between atoms: _495  and  _496
REMARK  206  A    between atoms: _496  and  _497
REMARK  207  A    between atoms: _506  and  _508
REMARK  208  A    between atoms: _508  and  _509
REMARK  209  A    between atoms: _508  and  _511
REMARK  210  A    between atoms: _511  and  _512
REMARK                            x       y       z     vdW  Elec       q    Type
REMARK                         _______ _______ _______ _____ _____    ______ ____
ROOT
ATOM      1  O   HOH     1      18.610  34.429  19.568  0.00  0.00    +0.000 OA
ENDROOT
TORSDOF 0
REMARK  Name = ../refined-set-2016/2i0a/2i0a_pocket.pdb
REMARK  210 active torsions:
REMARK  status: ('A' for Active; 'I' for Inactive)
REMARK    1  A    between atoms: _1  and  _3
REMARK    2  A    between atoms: _3  and  _4
REMARK    3  A    between atoms: _3  and  _6
REMARK    4  A    between atoms: _6  and  _7
REMARK    5  A    between atoms: _7  and  _8
REMARK    6  A    between atoms: _8  and  _9
REMARK    7  A    between atoms: _18  and  _20
REMARK    8  A    between atoms: _20  and  _21
REMARK    9  A    between atoms: _20  and  _23
REMARK   10  A    between atoms: _23  and  _24
REMARK   11  A    between atoms: _27  and  _29
REMARK   12  A    between atoms: _29  and  _30
REMARK   13  A    between atoms: _29  and  _32
REMARK   14  A    between atoms: _32  and  _33
REMARK   15  A    between atoms: _36  and  _38
REMARK   16  A    between atoms: _38  and  _39
REMARK   17  A    between atoms: _38  and  _41
REMARK   18  A    between atoms: _41  and  _42
REMARK   19  A    between atoms: _45  and  _47
REMARK   20  A    between atoms: _47  and  _48
REMARK   21  A    between atoms: _47  and  _50
REMARK   22  A    between atoms: _50  and  _51
REMARK   23  A    between atoms: _54  and  _56
REMARK   24  A    between atoms: _56  and  _57
REMARK   25  A    between atoms: _59  and  _61
REMARK   26  A    between atoms: _61  and  _62
REMARK   27  A    between atoms: _65  and  _67
REMARK   28  A    between atoms: _67  and  _68
REMARK   29  A    between atoms: _67  and  _70
REMARK   30  A    between atoms: _70  and  _71
REMARK   31  A    between atoms: _74  and  _76
REMARK   32  A    between atoms: _76  and  _77
REMARK   33  A    between atoms: _76  and  _79
REMARK   34  A    between atoms: _79  and  _80
REMARK   35  A    between atoms: _83  and  _85
REMARK   36  A    between atoms: _85  and  _86
REMARK   37  A    between atoms: _85  and  _88
REMARK   38  A    between atoms: _88  and  _89
REMARK   39  A    between atoms: _92  and  _94
REMARK   40  A    between atoms: _94  and  _95
REMARK   41  A    between atoms: _94  and  _97
REMARK   42  A    between atoms: _100  and  _102
REMARK   43  A    between atoms: _102  and  _103
REMARK   44  A    between atoms: _102  and  _105
REMARK   45  A    between atoms: _105  and  _106
REMARK   46  A    between atoms: _106  and  _107
REMARK   47  A    between atoms: _109  and  _111
REMARK   48  A    between atoms: _111  and  _112
REMARK   49  A    between atoms: _111  and  _114
REMARK   50  A    between atoms: _114  and  _115
REMARK   51  A    between atoms: _118  and  _120
REMARK   52  A    between atoms: _120  and  _121
REMARK   53  A    between atoms: _123  and  _125
REMARK   54  A    between atoms: _125  and  _126
REMARK   55  A    between atoms: _128  and  _130
REMARK   56  A    between atoms: _130  and  _131
REMARK   57  A    between atoms: _130  and  _133
REMARK   58  A    between atoms: _133  and  _134
REMARK   59  A    between atoms: _137  and  _139
REMARK   60  A    between atoms: _139  and  _140
REMARK   61  A    between atoms: _142  and  _144
REMARK   62  A    between atoms: _144  and  _145
REMARK   63  A    between atoms: _147  and  _149
REMARK   64  A    between atoms: _149  and  _150
REMARK   65  A    between atoms: _149  and  _152
REMARK   66  A    between atoms: _152  and  _153
REMARK   67  A    between atoms: _159  and  _161
REMARK   68  A    between atoms: _161  and  _162
REMARK   69  A    between atoms: _161  and  _164
REMARK   70  A    between atoms: _164  and  _165
REMARK   71  A    between atoms: _169  and  _170
REMARK   72  A    between atoms: _175  and  _177
REMARK   73  A    between atoms: _177  and  _178
REMARK   74  A    between atoms: _177  and  _180
REMARK   75  A    between atoms: _183  and  _185
REMARK   76  A    between atoms: _185  and  _186
REMARK   77  A    between atoms: _185  and  _188
REMARK   78  A    between atoms: _188  and  _189
REMARK   79  A    between atoms: _194  and  _196
REMARK   80  A    between atoms: _196  and  _197
REMARK   81  A    between atoms: _196  and  _199
REMARK   82  A    between atoms: _199  and  _200
REMARK   83  A    between atoms: _203  and  _205
REMARK   84  A    between atoms: _205  and  _206
REMARK   85  A    between atoms: _205  and  _208
REMARK   86  A    between atoms: _208  and  _209
REMARK   87  A    between atoms: _212  and  _214
REMARK   88  A    between atoms: _214  and  _215
REMARK   89  A    between atoms: _217  and  _219
REMARK   90  A    between atoms: _219  and  _220
REMARK   91  A    between atoms: _219  and  _222
REMARK   92  A    between atoms: _222  and  _223
REMARK   93  A    between atoms: _223  and  _224
REMARK   94  A    between atoms: _224  and  _225
REMARK   95  A    between atoms: _234  and  _236
REMARK   96  A    between atoms: _236  and  _237
REMARK   97  A    between atoms: _236  and  _239
REMARK   98  A    between atoms: _239  and  _240
REMARK   99  A    between atoms: _240  and  _241
REMARK  100  A    between atoms: _241  and  _242
REMARK  101  A    between atoms: _251  and  _253
REMARK  102  A    between atoms: _253  and  _254
REMARK  103  A    between atoms: _253  and  _256
REMARK  104  A    between atoms: _256  and  _257
REMARK  105  A    between atoms: _260  and  _262
REMARK  106  A    between atoms: _262  and  _263
REMARK  107  A    between atoms: _262  and  _265
REMARK  108  A    between atoms: _265  and  _266
REMARK  109  A    between atoms: _269  and  _271
REMARK  110  A    between atoms: _271  and  _272
REMARK  111  A    between atoms: _271  and  _274
REMARK  112  A    between atoms: _274  and  _275
REMARK  113  A    between atoms: _278  and  _280
REMARK  114  A    between atoms: _280  and  _281
REMARK  115  A    between atoms: _280  and  _283
REMARK  116  A    between atoms: _283  and  _284
REMARK  117  A    between atoms: _287  and  _289
REMARK  118  A    between atoms: _289  and  _290
REMARK  119  A    between atoms: _292  and  _294
REMARK  120  A    between atoms: _294  and  _295
REMARK  121  A    between atoms: _298  and  _300
REMARK  122  A    between atoms: _300  and  _301
REMARK  123  A    between atoms: _300  and  _303
REMARK  124  A    between atoms: _303  and  _304
REMARK  125  A    between atoms: _307  and  _309
REMARK  126  A    between atoms: _309  and  _310
REMARK  127  A    between atoms: _309  and  _312
REMARK  128  A    between atoms: _312  and  _313
REMARK  129  A    between atoms: _316  and  _318
REMARK  130  A    between atoms: _318  and  _319
REMARK  131  A    between atoms: _318  and  _321
REMARK  132  A    between atoms: _321  and  _322
REMARK  133  A    between atoms: _325  and  _327
REMARK  134  A    between atoms: _327  and  _328
REMARK  135  A    between atoms: _327  and  _330
REMARK  136  A    between atoms: _333  and  _335
REMARK  137  A    between atoms: _335  and  _336
REMARK  138  A    between atoms: _335  and  _338
REMARK  139  A    between atoms: _338  and  _339
REMARK  140  A    between atoms: _339  and  _340
REMARK  141  A    between atoms: _340  and  _341
REMARK  142  A    between atoms: _341  and  _342
REMARK  143  A    between atoms: _346  and  _348
REMARK  144  A    between atoms: _348  and  _349
REMARK  145  A    between atoms: _348  and  _351
REMARK  146  A    between atoms: _351  and  _352
REMARK  147  A    between atoms: _352  and  _353
REMARK  148  A    between atoms: _355  and  _357
REMARK  149  A    between atoms: _357  and  _358
REMARK  150  A    between atoms: _357  and  _360
REMARK  151  A    between atoms: _360  and  _361
REMARK  152  A    between atoms: _364  and  _366
REMARK  153  A    between atoms: _366  and  _367
REMARK  154  A    between atoms: _369  and  _371
REMARK  155  A    between atoms: _371  and  _372
REMARK  156  A    between atoms: _374  and  _376
REMARK  157  A    between atoms: _376  and  _377
REMARK  158  A    between atoms: _376  and  _379
REMARK  159  A    between atoms: _379  and  _380
REMARK  160  A    between atoms: _383  and  _385
REMARK  161  A    between atoms: _385  and  _386
REMARK  162  A    between atoms: _388  and  _390
REMARK  163  A    between atoms: _390  and  _391
REMARK  164  A    between atoms: _393  and  _395
REMARK  165  A    between atoms: _395  and  _396
REMARK  166  A    between atoms: _395  and  _398
REMARK  167  A    between atoms: _398  and  _399
REMARK  168  A    between atoms: _405  and  _407
REMARK  169  A    between atoms: _407  and  _408
REMARK  170  A    between atoms: _407  and  _410
REMARK  171  A    between atoms: _410  and  _411
REMARK  172  A    between atoms: _414  and  _416
REMARK  173  A    between atoms: _416  and  _417
REMARK  174  A    between atoms: _416  and  _419
REMARK  175  A    between atoms: _422  and  _424
REMARK  176  A    between atoms: _424  and  _425
REMARK  177  A    between atoms: _424  and  _427
REMARK  178  A    between atoms: _427  and  _428
REMARK  179  A    between atoms: _431  and  _433
REMARK  180  A    between atoms: _433  and  _434
REMARK  181  A    between atoms: _433  and  _436
REMARK  182  A    between atoms: _436  and  _437
REMARK  183  A    between atoms: _441  and  _442
REMARK  184  A    between atoms: _447  and  _449
REMARK  185  A    between atoms: _449  and  _450
REMARK  186  A    between atoms: _449  and  _452
REMARK  187  A    between atoms: _455  and  _457
REMARK  188  A    between atoms: _457  and  _458
REMARK  189  A    between atoms: _457  and  _460
REMARK  190  A    between atoms: _460  and  _461
REMARK  191  A    between atoms: _466  and  _468
REMARK  192  A    between atoms: _468  and  _469
REMARK  193  A    between atoms: _468  and  _471
REMARK  194  A    between atoms: _471  and  _472
REMARK  195  A    between atoms: _475  and  _477
REMARK  196  A    between atoms: _477  and  _478
REMARK  197  A    between atoms: _477  and  _480
REMARK  198  A    between atoms: _480  and  _481
REMARK  199  A    between atoms: _484  and  _486
REMARK  200  A    between atoms: _486  and  _487
REMARK  201  A    between atoms: _489  and  _491
REMARK  202  A    between atoms: _491  and  _492
REMARK  203  A    between atoms: _491  and  _494
REMARK  204  A    between atoms: _494  and  _495
REMARK  205  A    between atoms: _495  and  _496
REMARK  206  A    between atoms: _496  and  _497
REMARK  207  A    between atoms: _506  and  _508
REMARK  208  A    between atoms: _508  and  _509
REMARK  209  A    between atoms: _508  and  _511
REMARK  210  A    between atoms: _511  and  _512
REMARK                            x       y       z     vdW  Elec       q    Type
REMARK                         _______ _______ _______ _____ _____    ______ ____
ROOT
ATOM      1  O   HOH     1       9.182  34.440  21.548  0.00  0.00    +0.000 OA
ENDROOT
TORSDOF 0
REMARK  Name = ../refined-set-2016/2i0a/2i0a_pocket.pdb
REMARK  210 active torsions:
REMARK  status: ('A' for Active; 'I' for Inactive)
REMARK    1  A    between atoms: _1  and  _3
REMARK    2  A    between atoms: _3  and  _4
REMARK    3  A    between atoms: _3  and  _6
REMARK    4  A    between atoms: _6  and  _7
REMARK    5  A    between atoms: _7  and  _8
REMARK    6  A    between atoms: _8  and  _9
REMARK    7  A    between atoms: _18  and  _20
REMARK    8  A    between atoms: _20  and  _21
REMARK    9  A    between atoms: _20  and  _23
REMARK   10  A    between atoms: _23  and  _24
REMARK   11  A    between atoms: _27  and  _29
REMARK   12  A    between atoms: _29  and  _30
REMARK   13  A    between atoms: _29  and  _32
REMARK   14  A    between atoms: _32  and  _33
REMARK   15  A    between atoms: _36  and  _38
REMARK   16  A    between atoms: _38  and  _39
REMARK   17  A    between atoms: _38  and  _41
REMARK   18  A    between atoms: _41  and  _42
REMARK   19  A    between atoms: _45  and  _47
REMARK   20  A    between atoms: _47  and  _48
REMARK   21  A    between atoms: _47  and  _50
REMARK   22  A    between atoms: _50  and  _51
REMARK   23  A    between atoms: _54  and  _56
REMARK   24  A    between atoms: _56  and  _57
REMARK   25  A    between atoms: _59  and  _61
REMARK   26  A    between atoms: _61  and  _62
REMARK   27  A    between atoms: _65  and  _67
REMARK   28  A    between atoms: _67  and  _68
REMARK   29  A    between atoms: _67  and  _70
REMARK   30  A    between atoms: _70  and  _71
REMARK   31  A    between atoms: _74  and  _76
REMARK   32  A    between atoms: _76  and  _77
REMARK   33  A    between atoms: _76  and  _79
REMARK   34  A    between atoms: _79  and  _80
REMARK   35  A    between atoms: _83  and  _85
REMARK   36  A    between atoms: _85  and  _86
REMARK   37  A    between atoms: _85  and  _88
REMARK   38  A    between atoms: _88  and  _89
REMARK   39  A    between atoms: _92  and  _94
REMARK   40  A    between atoms: _94  and  _95
REMARK   41  A    between atoms: _94  and  _97
REMARK   42  A    between atoms: _100  and  _102
REMARK   43  A    between atoms: _102  and  _103
REMARK   44  A    between atoms: _102  and  _105
REMARK   45  A    between atoms: _105  and  _106
REMARK   46  A    between atoms: _106  and  _107
REMARK   47  A    between atoms: _109  and  _111
REMARK   48  A    between atoms: _111  and  _112
REMARK   49  A    between atoms: _111  and  _114
REMARK   50  A    between atoms: _114  and  _115
REMARK   51  A    between atoms: _118  and  _120
REMARK   52  A    between atoms: _120  and  _121
REMARK   53  A    between atoms: _123  and  _125
REMARK   54  A    between atoms: _125  and  _126
REMARK   55  A    between atoms: _128  and  _130
REMARK   56  A    between atoms: _130  and  _131
REMARK   57  A    between atoms: _130  and  _133
REMARK   58  A    between atoms: _133  and  _134
REMARK   59  A    between atoms: _137  and  _139
REMARK   60  A    between atoms: _139  and  _140
REMARK   61  A    between atoms: _142  and  _144
REMARK   62  A    between atoms: _144  and  _145
REMARK   63  A    between atoms: _147  and  _149
REMARK   64  A    between atoms: _149  and  _150
REMARK   65  A    between atoms: _149  and  _152
REMARK   66  A    between atoms: _152  and  _153
REMARK   67  A    between atoms: _159  and  _161
REMARK   68  A    between atoms: _161  and  _162
REMARK   69  A    between atoms: _161  and  _164
REMARK   70  A    between atoms: _164  and  _165
REMARK   71  A    between atoms: _169  and  _170
REMARK   72  A    between atoms: _175  and  _177
REMARK   73  A    between atoms: _177  and  _178
REMARK   74  A    between atoms: _177  and  _180
REMARK   75  A    between atoms: _183  and  _185
REMARK   76  A    between atoms: _185  and  _186
REMARK   77  A    between atoms: _185  and  _188
REMARK   78  A    between atoms: _188  and  _189
REMARK   79  A    between atoms: _194  and  _196
REMARK   80  A    between atoms: _196  and  _197
REMARK   81  A    between atoms: _196  and  _199
REMARK   82  A    between atoms: _199  and  _200
REMARK   83  A    between atoms: _203  and  _205
REMARK   84  A    between atoms: _205  and  _206
REMARK   85  A    between atoms: _205  and  _208
REMARK   86  A    between atoms: _208  and  _209
REMARK   87  A    between atoms: _212  and  _214
REMARK   88  A    between atoms: _214  and  _215
REMARK   89  A    between atoms: _217  and  _219
REMARK   90  A    between atoms: _219  and  _220
REMARK   91  A    between atoms: _219  and  _222
REMARK   92  A    between atoms: _222  and  _223
REMARK   93  A    between atoms: _223  and  _224
REMARK   94  A    between atoms: _224  and  _225
REMARK   95  A    between atoms: _234  and  _236
REMARK   96  A    between atoms: _236  and  _237
REMARK   97  A    between atoms: _236  and  _239
REMARK   98  A    between atoms: _239  and  _240
REMARK   99  A    between atoms: _240  and  _241
REMARK  100  A    between atoms: _241  and  _242
REMARK  101  A    between atoms: _251  and  _253
REMARK  102  A    between atoms: _253  and  _254
REMARK  103  A    between atoms: _253  and  _256
REMARK  104  A    between atoms: _256  and  _257
REMARK  105  A    between atoms: _260  and  _262
REMARK  106  A    between atoms: _262  and  _263
REMARK  107  A    between atoms: _262  and  _265
REMARK  108  A    between atoms: _265  and  _266
REMARK  109  A    between atoms: _269  and  _271
REMARK  110  A    between atoms: _271  and  _272
REMARK  111  A    between atoms: _271  and  _274
REMARK  112  A    between atoms: _274  and  _275
REMARK  113  A    between atoms: _278  and  _280
REMARK  114  A    between atoms: _280  and  _281
REMARK  115  A    between atoms: _280  and  _283
REMARK  116  A    between atoms: _283  and  _284
REMARK  117  A    between atoms: _287  and  _289
REMARK  118  A    between atoms: _289  and  _290
REMARK  119  A    between atoms: _292  and  _294
REMARK  120  A    between atoms: _294  and  _295
REMARK  121  A    between atoms: _298  and  _300
REMARK  122  A    between atoms: _300  and  _301
REMARK  123  A    between atoms: _300  and  _303
REMARK  124  A    between atoms: _303  and  _304
REMARK  125  A    between atoms: _307  and  _309
REMARK  126  A    between atoms: _309  and  _310
REMARK  127  A    between atoms: _309  and  _312
REMARK  128  A    between atoms: _312  and  _313
REMARK  129  A    between atoms: _316  and  _318
REMARK  130  A    between atoms: _318  and  _319
REMARK  131  A    between atoms: _318  and  _321
REMARK  132  A    between atoms: _321  and  _322
REMARK  133  A    between atoms: _325  and  _327
REMARK  134  A    between atoms: _327  and  _328
REMARK  135  A    between atoms: _327  and  _330
REMARK  136  A    between atoms: _333  and  _335
REMARK  137  A    between atoms: _335  and  _336
REMARK  138  A    between atoms: _335  and  _338
REMARK  139  A    between atoms: _338  and  _339
REMARK  140  A    between atoms: _339  and  _340
REMARK  141  A    between atoms: _340  and  _341
REMARK  142  A    between atoms: _341  and  _342
REMARK  143  A    between atoms: _346  and  _348
REMARK  144  A    between atoms: _348  and  _349
REMARK  145  A    between atoms: _348  and  _351
REMARK  146  A    between atoms: _351  and  _352
REMARK  147  A    between atoms: _352  and  _353
REMARK  148  A    between atoms: _355  and  _357
REMARK  149  A    between atoms: _357  and  _358
REMARK  150  A    between atoms: _357  and  _360
REMARK  151  A    between atoms: _360  and  _361
REMARK  152  A    between atoms: _364  and  _366
REMARK  153  A    between atoms: _366  and  _367
REMARK  154  A    between atoms: _369  and  _371
REMARK  155  A    between atoms: _371  and  _372
REMARK  156  A    between atoms: _374  and  _376
REMARK  157  A    between atoms: _376  and  _377
REMARK  158  A    between atoms: _376  and  _379
REMARK  159  A    between atoms: _379  and  _380
REMARK  160  A    between atoms: _383  and  _385
REMARK  161  A    between atoms: _385  and  _386
REMARK  162  A    between atoms: _388  and  _390
REMARK  163  A    between atoms: _390  and  _391
REMARK  164  A    between atoms: _393  and  _395
REMARK  165  A    between atoms: _395  and  _396
REMARK  166  A    between atoms: _395  and  _398
REMARK  167  A    between atoms: _398  and  _399
REMARK  168  A    between atoms: _405  and  _407
REMARK  169  A    between atoms: _407  and  _408
REMARK  170  A    between atoms: _407  and  _410
REMARK  171  A    between atoms: _410  and  _411
REMARK  172  A    between atoms: _414  and  _416
REMARK  173  A    between atoms: _416  and  _417
REMARK  174  A    between atoms: _416  and  _419
REMARK  175  A    between atoms: _422  and  _424
REMARK  176  A    between atoms: _424  and  _425
REMARK  177  A    between atoms: _424  and  _427
REMARK  178  A    between atoms: _427  and  _428
REMARK  179  A    between atoms: _431  and  _433
REMARK  180  A    between atoms: _433  and  _434
REMARK  181  A    between atoms: _433  and  _436
REMARK  182  A    between atoms: _436  and  _437
REMARK  183  A    between atoms: _441  and  _442
REMARK  184  A    between atoms: _447  and  _449
REMARK  185  A    between atoms: _449  and  _450
REMARK  186  A    between atoms: _449  and  _452
REMARK  187  A    between atoms: _455  and  _457
REMARK  188  A    between atoms: _457  and  _458
REMARK  189  A    between atoms: _457  and  _460
REMARK  190  A    between atoms: _460  and  _461
REMARK  191  A    between atoms: _466  and  _468
REMARK  192  A    between atoms: _468  and  _469
REMARK  193  A    between atoms: _468  and  _471
REMARK  194  A    between atoms: _471  and  _472
REMARK  195  A    between atoms: _475  and  _477
REMARK  196  A    between atoms: _477  and  _478
REMARK  197  A    between atoms: _477  and  _480
REMARK  198  A    between atoms: _480  and  _481
REMARK  199  A    between atoms: _484  and  _486
REMARK  200  A    between atoms: _486  and  _487
REMARK  201  A    between atoms: _489  and  _491
REMARK  202  A    between atoms: _491  and  _492
REMARK  203  A    between atoms: _491  and  _494
REMARK  204  A    between atoms: _494  and  _495
REMARK  205  A    between atoms: _495  and  _496
REMARK  206  A    between atoms: _496  and  _497
REMARK  207  A    between atoms: _506  and  _508
REMARK  208  A    between atoms: _508  and  _509
REMARK  209  A    between atoms: _508  and  _511
REMARK  210  A    between atoms: _511  and  _512
REMARK                            x       y       z     vdW  Elec       q    Type
REMARK                         _______ _______ _______ _____ _____    ______ ____
ROOT
ATOM      1  O   HOH     1      17.318  39.289  16.294  0.00  0.00    +0.000 OA
ENDROOT
TORSDOF 0
REMARK  Name = ../refined-set-2016/2i0a/2i0a_pocket.pdb
REMARK  210 active torsions:
REMARK  status: ('A' for Active; 'I' for Inactive)
REMARK    1  A    between atoms: _1  and  _3
REMARK    2  A    between atoms: _3  and  _4
REMARK    3  A    between atoms: _3  and  _6
REMARK    4  A    between atoms: _6  and  _7
REMARK    5  A    between atoms: _7  and  _8
REMARK    6  A    between atoms: _8  and  _9
REMARK    7  A    between atoms: _18  and  _20
REMARK    8  A    between atoms: _20  and  _21
REMARK    9  A    between atoms: _20  and  _23
REMARK   10  A    between atoms: _23  and  _24
REMARK   11  A    between atoms: _27  and  _29
REMARK   12  A    between atoms: _29  and  _30
REMARK   13  A    between atoms: _29  and  _32
REMARK   14  A    between atoms: _32  and  _33
REMARK   15  A    between atoms: _36  and  _38
REMARK   16  A    between atoms: _38  and  _39
REMARK   17  A    between atoms: _38  and  _41
REMARK   18  A    between atoms: _41  and  _42
REMARK   19  A    between atoms: _45  and  _47
REMARK   20  A    between atoms: _47  and  _48
REMARK   21  A    between atoms: _47  and  _50
REMARK   22  A    between atoms: _50  and  _51
REMARK   23  A    between atoms: _54  and  _56
REMARK   24  A    between atoms: _56  and  _57
REMARK   25  A    between atoms: _59  and  _61
REMARK   26  A    between atoms: _61  and  _62
REMARK   27  A    between atoms: _65  and  _67
REMARK   28  A    between atoms: _67  and  _68
REMARK   29  A    between atoms: _67  and  _70
REMARK   30  A    between atoms: _70  and  _71
REMARK   31  A    between atoms: _74  and  _76
REMARK   32  A    between atoms: _76  and  _77
REMARK   33  A    between atoms: _76  and  _79
REMARK   34  A    between atoms: _79  and  _80
REMARK   35  A    between atoms: _83  and  _85
REMARK   36  A    between atoms: _85  and  _86
REMARK   37  A    between atoms: _85  and  _88
REMARK   38  A    between atoms: _88  and  _89
REMARK   39  A    between atoms: _92  and  _94
REMARK   40  A    between atoms: _94  and  _95
REMARK   41  A    between atoms: _94  and  _97
REMARK   42  A    between atoms: _100  and  _102
REMARK   43  A    between atoms: _102  and  _103
REMARK   44  A    between atoms: _102  and  _105
REMARK   45  A    between atoms: _105  and  _106
REMARK   46  A    between atoms: _106  and  _107
REMARK   47  A    between atoms: _109  and  _111
REMARK   48  A    between atoms: _111  and  _112
REMARK   49  A    between atoms: _111  and  _114
REMARK   50  A    between atoms: _114  and  _115
REMARK   51  A    between atoms: _118  and  _120
REMARK   52  A    between atoms: _120  and  _121
REMARK   53  A    between atoms: _123  and  _125
REMARK   54  A    between atoms: _125  and  _126
REMARK   55  A    between atoms: _128  and  _130
REMARK   56  A    between atoms: _130  and  _131
REMARK   57  A    between atoms: _130  and  _133
REMARK   58  A    between atoms: _133  and  _134
REMARK   59  A    between atoms: _137  and  _139
REMARK   60  A    between atoms: _139  and  _140
REMARK   61  A    between atoms: _142  and  _144
REMARK   62  A    between atoms: _144  and  _145
REMARK   63  A    between atoms: _147  and  _149
REMARK   64  A    between atoms: _149  and  _150
REMARK   65  A    between atoms: _149  and  _152
REMARK   66  A    between atoms: _152  and  _153
REMARK   67  A    between atoms: _159  and  _161
REMARK   68  A    between atoms: _161  and  _162
REMARK   69  A    between atoms: _161  and  _164
REMARK   70  A    between atoms: _164  and  _165
REMARK   71  A    between atoms: _169  and  _170
REMARK   72  A    between atoms: _175  and  _177
REMARK   73  A    between atoms: _177  and  _178
REMARK   74  A    between atoms: _177  and  _180
REMARK   75  A    between atoms: _183  and  _185
REMARK   76  A    between atoms: _185  and  _186
REMARK   77  A    between atoms: _185  and  _188
REMARK   78  A    between atoms: _188  and  _189
REMARK   79  A    between atoms: _194  and  _196
REMARK   80  A    between atoms: _196  and  _197
REMARK   81  A    between atoms: _196  and  _199
REMARK   82  A    between atoms: _199  and  _200
REMARK   83  A    between atoms: _203  and  _205
REMARK   84  A    between atoms: _205  and  _206
REMARK   85  A    between atoms: _205  and  _208
REMARK   86  A    between atoms: _208  and  _209
REMARK   87  A    between atoms: _212  and  _214
REMARK   88  A    between atoms: _214  and  _215
REMARK   89  A    between atoms: _217  and  _219
REMARK   90  A    between atoms: _219  and  _220
REMARK   91  A    between atoms: _219  and  _222
REMARK   92  A    between atoms: _222  and  _223
REMARK   93  A    between atoms: _223  and  _224
REMARK   94  A    between atoms: _224  and  _225
REMARK   95  A    between atoms: _234  and  _236
REMARK   96  A    between atoms: _236  and  _237
REMARK   97  A    between atoms: _236  and  _239
REMARK   98  A    between atoms: _239  and  _240
REMARK   99  A    between atoms: _240  and  _241
REMARK  100  A    between atoms: _241  and  _242
REMARK  101  A    between atoms: _251  and  _253
REMARK  102  A    between atoms: _253  and  _254
REMARK  103  A    between atoms: _253  and  _256
REMARK  104  A    between atoms: _256  and  _257
REMARK  105  A    between atoms: _260  and  _262
REMARK  106  A    between atoms: _262  and  _263
REMARK  107  A    between atoms: _262  and  _265
REMARK  108  A    between atoms: _265  and  _266
REMARK  109  A    between atoms: _269  and  _271
REMARK  110  A    between atoms: _271  and  _272
REMARK  111  A    between atoms: _271  and  _274
REMARK  112  A    between atoms: _274  and  _275
REMARK  113  A    between atoms: _278  and  _280
REMARK  114  A    between atoms: _280  and  _281
REMARK  115  A    between atoms: _280  and  _283
REMARK  116  A    between atoms: _283  and  _284
REMARK  117  A    between atoms: _287  and  _289
REMARK  118  A    between atoms: _289  and  _290
REMARK  119  A    between atoms: _292  and  _294
REMARK  120  A    between atoms: _294  and  _295
REMARK  121  A    between atoms: _298  and  _300
REMARK  122  A    between atoms: _300  and  _301
REMARK  123  A    between atoms: _300  and  _303
REMARK  124  A    between atoms: _303  and  _304
REMARK  125  A    between atoms: _307  and  _309
REMARK  126  A    between atoms: _309  and  _310
REMARK  127  A    between atoms: _309  and  _312
REMARK  128  A    between atoms: _312  and  _313
REMARK  129  A    between atoms: _316  and  _318
REMARK  130  A    between atoms: _318  and  _319
REMARK  131  A    between atoms: _318  and  _321
REMARK  132  A    between atoms: _321  and  _322
REMARK  133  A    between atoms: _325  and  _327
REMARK  134  A    between atoms: _327  and  _328
REMARK  135  A    between atoms: _327  and  _330
REMARK  136  A    between atoms: _333  and  _335
REMARK  137  A    between atoms: _335  and  _336
REMARK  138  A    between atoms: _335  and  _338
REMARK  139  A    between atoms: _338  and  _339
REMARK  140  A    between atoms: _339  and  _340
REMARK  141  A    between atoms: _340  and  _341
REMARK  142  A    between atoms: _341  and  _342
REMARK  143  A    between atoms: _346  and  _348
REMARK  144  A    between atoms: _348  and  _349
REMARK  145  A    between atoms: _348  and  _351
REMARK  146  A    between atoms: _351  and  _352
REMARK  147  A    between atoms: _352  and  _353
REMARK  148  A    between atoms: _355  and  _357
REMARK  149  A    between atoms: _357  and  _358
REMARK  150  A    between atoms: _357  and  _360
REMARK  151  A    between atoms: _360  and  _361
REMARK  152  A    between atoms: _364  and  _366
REMARK  153  A    between atoms: _366  and  _367
REMARK  154  A    between atoms: _369  and  _371
REMARK  155  A    between atoms: _371  and  _372
REMARK  156  A    between atoms: _374  and  _376
REMARK  157  A    between atoms: _376  and  _377
REMARK  158  A    between atoms: _376  and  _379
REMARK  159  A    between atoms: _379  and  _380
REMARK  160  A    between atoms: _383  and  _385
REMARK  161  A    between atoms: _385  and  _386
REMARK  162  A    between atoms: _388  and  _390
REMARK  163  A    between atoms: _390  and  _391
REMARK  164  A    between atoms: _393  and  _395
REMARK  165  A    between atoms: _395  and  _396
REMARK  166  A    between atoms: _395  and  _398
REMARK  167  A    between atoms: _398  and  _399
REMARK  168  A    between atoms: _405  and  _407
REMARK  169  A    between atoms: _407  and  _408
REMARK  170  A    between atoms: _407  and  _410
REMARK  171  A    between atoms: _410  and  _411
REMARK  172  A    between atoms: _414  and  _416
REMARK  173  A    between atoms: _416  and  _417
REMARK  174  A    between atoms: _416  and  _419
REMARK  175  A    between atoms: _422  and  _424
REMARK  176  A    between atoms: _424  and  _425
REMARK  177  A    between atoms: _424  and  _427
REMARK  178  A    between atoms: _427  and  _428
REMARK  179  A    between atoms: _431  and  _433
REMARK  180  A    between atoms: _433  and  _434
REMARK  181  A    between atoms: _433  and  _436
REMARK  182  A    between atoms: _436  and  _437
REMARK  183  A    between atoms: _441  and  _442
REMARK  184  A    between atoms: _447  and  _449
REMARK  185  A    between atoms: _449  and  _450
REMARK  186  A    between atoms: _449  and  _452
REMARK  187  A    between atoms: _455  and  _457
REMARK  188  A    between atoms: _457  and  _458
REMARK  189  A    between atoms: _457  and  _460
REMARK  190  A    between atoms: _460  and  _461
REMARK  191  A    between atoms: _466  and  _468
REMARK  192  A    between atoms: _468  and  _469
REMARK  193  A    between atoms: _468  and  _471
REMARK  194  A    between atoms: _471  and  _472
REMARK  195  A    between atoms: _475  and  _477
REMARK  196  A    between atoms: _477  and  _478
REMARK  197  A    between atoms: _477  and  _480
REMARK  198  A    between atoms: _480  and  _481
REMARK  199  A    between atoms: _484  and  _486
REMARK  200  A    between atoms: _486  and  _487
REMARK  201  A    between atoms: _489  and  _491
REMARK  202  A    between atoms: _491  and  _492
REMARK  203  A    between atoms: _491  and  _494
REMARK  204  A    between atoms: _494  and  _495
REMARK  205  A    between atoms: _495  and  _496
REMARK  206  A    between atoms: _496  and  _497
REMARK  207  A    between atoms: _506  and  _508
REMARK  208  A    between atoms: _508  and  _509
REMARK  209  A    between atoms: _508  and  _511
REMARK  210  A    between atoms: _511  and  _512
REMARK                            x       y       z     vdW  Elec       q    Type
REMARK                         _______ _______ _______ _____ _____    ______ ____
ROOT
ATOM      1  O   HOH     1      10.156  36.228  23.776  0.00  0.00    +0.000 OA
ENDROOT
TORSDOF 0
REMARK  Name = ../refined-set-2016/2i0a/2i0a_pocket.pdb
REMARK  210 active torsions:
REMARK  status: ('A' for Active; 'I' for Inactive)
REMARK    1  A    between atoms: _1  and  _3
REMARK    2  A    between atoms: _3  and  _4
REMARK    3  A    between atoms: _3  and  _6
REMARK    4  A    between atoms: _6  and  _7
REMARK    5  A    between atoms: _7  and  _8
REMARK    6  A    between atoms: _8  and  _9
REMARK    7  A    between atoms: _18  and  _20
REMARK    8  A    between atoms: _20  and  _21
REMARK    9  A    between atoms: _20  and  _23
REMARK   10  A    between atoms: _23  and  _24
REMARK   11  A    between atoms: _27  and  _29
REMARK   12  A    between atoms: _29  and  _30
REMARK   13  A    between atoms: _29  and  _32
REMARK   14  A    between atoms: _32  and  _33
REMARK   15  A    between atoms: _36  and  _38
REMARK   16  A    between atoms: _38  and  _39
REMARK   17  A    between atoms: _38  and  _41
REMARK   18  A    between atoms: _41  and  _42
REMARK   19  A    between atoms: _45  and  _47
REMARK   20  A    between atoms: _47  and  _48
REMARK   21  A    between atoms: _47  and  _50
REMARK   22  A    between atoms: _50  and  _51
REMARK   23  A    between atoms: _54  and  _56
REMARK   24  A    between atoms: _56  and  _57
REMARK   25  A    between atoms: _59  and  _61
REMARK   26  A    between atoms: _61  and  _62
REMARK   27  A    between atoms: _65  and  _67
REMARK   28  A    between atoms: _67  and  _68
REMARK   29  A    between atoms: _67  and  _70
REMARK   30  A    between atoms: _70  and  _71
REMARK   31  A    between atoms: _74  and  _76
REMARK   32  A    between atoms: _76  and  _77
REMARK   33  A    between atoms: _76  and  _79
REMARK   34  A    between atoms: _79  and  _80
REMARK   35  A    between atoms: _83  and  _85
REMARK   36  A    between atoms: _85  and  _86
REMARK   37  A    between atoms: _85  and  _88
REMARK   38  A    between atoms: _88  and  _89
REMARK   39  A    between atoms: _92  and  _94
REMARK   40  A    between atoms: _94  and  _95
REMARK   41  A    between atoms: _94  and  _97
REMARK   42  A    between atoms: _100  and  _102
REMARK   43  A    between atoms: _102  and  _103
REMARK   44  A    between atoms: _102  and  _105
REMARK   45  A    between atoms: _105  and  _106
REMARK   46  A    between atoms: _106  and  _107
REMARK   47  A    between atoms: _109  and  _111
REMARK   48  A    between atoms: _111  and  _112
REMARK   49  A    between atoms: _111  and  _114
REMARK   50  A    between atoms: _114  and  _115
REMARK   51  A    between atoms: _118  and  _120
REMARK   52  A    between atoms: _120  and  _121
REMARK   53  A    between atoms: _123  and  _125
REMARK   54  A    between atoms: _125  and  _126
REMARK   55  A    between atoms: _128  and  _130
REMARK   56  A    between atoms: _130  and  _131
REMARK   57  A    between atoms: _130  and  _133
REMARK   58  A    between atoms: _133  and  _134
REMARK   59  A    between atoms: _137  and  _139
REMARK   60  A    between atoms: _139  and  _140
REMARK   61  A    between atoms: _142  and  _144
REMARK   62  A    between atoms: _144  and  _145
REMARK   63  A    between atoms: _147  and  _149
REMARK   64  A    between atoms: _149  and  _150
REMARK   65  A    between atoms: _149  and  _152
REMARK   66  A    between atoms: _152  and  _153
REMARK   67  A    between atoms: _159  and  _161
REMARK   68  A    between atoms: _161  and  _162
REMARK   69  A    between atoms: _161  and  _164
REMARK   70  A    between atoms: _164  and  _165
REMARK   71  A    between atoms: _169  and  _170
REMARK   72  A    between atoms: _175  and  _177
REMARK   73  A    between atoms: _177  and  _178
REMARK   74  A    between atoms: _177  and  _180
REMARK   75  A    between atoms: _183  and  _185
REMARK   76  A    between atoms: _185  and  _186
REMARK   77  A    between atoms: _185  and  _188
REMARK   78  A    between atoms: _188  and  _189
REMARK   79  A    between atoms: _194  and  _196
REMARK   80  A    between atoms: _196  and  _197
REMARK   81  A    between atoms: _196  and  _199
REMARK   82  A    between atoms: _199  and  _200
REMARK   83  A    between atoms: _203  and  _205
REMARK   84  A    between atoms: _205  and  _206
REMARK   85  A    between atoms: _205  and  _208
REMARK   86  A    between atoms: _208  and  _209
REMARK   87  A    between atoms: _212  and  _214
REMARK   88  A    between atoms: _214  and  _215
REMARK   89  A    between atoms: _217  and  _219
REMARK   90  A    between atoms: _219  and  _220
REMARK   91  A    between atoms: _219  and  _222
REMARK   92  A    between atoms: _222  and  _223
REMARK   93  A    between atoms: _223  and  _224
REMARK   94  A    between atoms: _224  and  _225
REMARK   95  A    between atoms: _234  and  _236
REMARK   96  A    between atoms: _236  and  _237
REMARK   97  A    between atoms: _236  and  _239
REMARK   98  A    between atoms: _239  and  _240
REMARK   99  A    between atoms: _240  and  _241
REMARK  100  A    between atoms: _241  and  _242
REMARK  101  A    between atoms: _251  and  _253
REMARK  102  A    between atoms: _253  and  _254
REMARK  103  A    between atoms: _253  and  _256
REMARK  104  A    between atoms: _256  and  _257
REMARK  105  A    between atoms: _260  and  _262
REMARK  106  A    between atoms: _262  and  _263
REMARK  107  A    between atoms: _262  and  _265
REMARK  108  A    between atoms: _265  and  _266
REMARK  109  A    between atoms: _269  and  _271
REMARK  110  A    between atoms: _271  and  _272
REMARK  111  A    between atoms: _271  and  _274
REMARK  112  A    between atoms: _274  and  _275
REMARK  113  A    between atoms: _278  and  _280
REMARK  114  A    between atoms: _280  and  _281
REMARK  115  A    between atoms: _280  and  _283
REMARK  116  A    between atoms: _283  and  _284
REMARK  117  A    between atoms: _287  and  _289
REMARK  118  A    between atoms: _289  and  _290
REMARK  119  A    between atoms: _292  and  _294
REMARK  120  A    between atoms: _294  and  _295
REMARK  121  A    between atoms: _298  and  _300
REMARK  122  A    between atoms: _300  and  _301
REMARK  123  A    between atoms: _300  and  _303
REMARK  124  A    between atoms: _303  and  _304
REMARK  125  A    between atoms: _307  and  _309
REMARK  126  A    between atoms: _309  and  _310
REMARK  127  A    between atoms: _309  and  _312
REMARK  128  A    between atoms: _312  and  _313
REMARK  129  A    between atoms: _316  and  _318
REMARK  130  A    between atoms: _318  and  _319
REMARK  131  A    between atoms: _318  and  _321
REMARK  132  A    between atoms: _321  and  _322
REMARK  133  A    between atoms: _325  and  _327
REMARK  134  A    between atoms: _327  and  _328
REMARK  135  A    between atoms: _327  and  _330
REMARK  136  A    between atoms: _333  and  _335
REMARK  137  A    between atoms: _335  and  _336
REMARK  138  A    between atoms: _335  and  _338
REMARK  139  A    between atoms: _338  and  _339
REMARK  140  A    between atoms: _339  and  _340
REMARK  141  A    between atoms: _340  and  _341
REMARK  142  A    between atoms: _341  and  _342
REMARK  143  A    between atoms: _346  and  _348
REMARK  144  A    between atoms: _348  and  _349
REMARK  145  A    between atoms: _348  and  _351
REMARK  146  A    between atoms: _351  and  _352
REMARK  147  A    between atoms: _352  and  _353
REMARK  148  A    between atoms: _355  and  _357
REMARK  149  A    between atoms: _357  and  _358
REMARK  150  A    between atoms: _357  and  _360
REMARK  151  A    between atoms: _360  and  _361
REMARK  152  A    between atoms: _364  and  _366
REMARK  153  A    between atoms: _366  and  _367
REMARK  154  A    between atoms: _369  and  _371
REMARK  155  A    between atoms: _371  and  _372
REMARK  156  A    between atoms: _374  and  _376
REMARK  157  A    between atoms: _376  and  _377
REMARK  158  A    between atoms: _376  and  _379
REMARK  159  A    between atoms: _379  and  _380
REMARK  160  A    between atoms: _383  and  _385
REMARK  161  A    between atoms: _385  and  _386
REMARK  162  A    between atoms: _388  and  _390
REMARK  163  A    between atoms: _390  and  _391
REMARK  164  A    between atoms: _393  and  _395
REMARK  165  A    between atoms: _395  and  _396
REMARK  166  A    between atoms: _395  and  _398
REMARK  167  A    between atoms: _398  and  _399
REMARK  168  A    between atoms: _405  and  _407
REMARK  169  A    between atoms: _407  and  _408
REMARK  170  A    between atoms: _407  and  _410
REMARK  171  A    between atoms: _410  and  _411
REMARK  172  A    between atoms: _414  and  _416
REMARK  173  A    between atoms: _416  and  _417
REMARK  174  A    between atoms: _416  and  _419
REMARK  175  A    between atoms: _422  and  _424
REMARK  176  A    between atoms: _424  and  _425
REMARK  177  A    between atoms: _424  and  _427
REMARK  178  A    between atoms: _427  and  _428
REMARK  179  A    between atoms: _431  and  _433
REMARK  180  A    between atoms: _433  and  _434
REMARK  181  A    between atoms: _433  and  _436
REMARK  182  A    between atoms: _436  and  _437
REMARK  183  A    between atoms: _441  and  _442
REMARK  184  A    between atoms: _447  and  _449
REMARK  185  A    between atoms: _449  and  _450
REMARK  186  A    between atoms: _449  and  _452
REMARK  187  A    between atoms: _455  and  _457
REMARK  188  A    between atoms: _457  and  _458
REMARK  189  A    between atoms: _457  and  _460
REMARK  190  A    between atoms: _460  and  _461
REMARK  191  A    between atoms: _466  and  _468
REMARK  192  A    between atoms: _468  and  _469
REMARK  193  A    between atoms: _468  and  _471
REMARK  194  A    between atoms: _471  and  _472
REMARK  195  A    between atoms: _475  and  _477
REMARK  196  A    between atoms: _477  and  _478
REMARK  197  A    between atoms: _477  and  _480
REMARK  198  A    between atoms: _480  and  _481
REMARK  199  A    between atoms: _484  and  _486
REMARK  200  A    between atoms: _486  and  _487
REMARK  201  A    between atoms: _489  and  _491
REMARK  202  A    between atoms: _491  and  _492
REMARK  203  A    between atoms: _491  and  _494
REMARK  204  A    between atoms: _494  and  _495
REMARK  205  A    between atoms: _495  and  _496
REMARK  206  A    between atoms: _496  and  _497
REMARK  207  A    between atoms: _506  and  _508
REMARK  208  A    between atoms: _508  and  _509
REMARK  209  A    between atoms: _508  and  _511
REMARK  210  A    between atoms: _511  and  _512
REMARK                            x       y       z     vdW  Elec       q    Type
REMARK                         _______ _______ _______ _____ _____    ______ ____
ROOT
ATOM      1  O   HOH     1      17.932  20.880   6.157  0.00  0.00    +0.000 OA
ENDROOT
TORSDOF 0
REMARK  Name = ../refined-set-2016/2i0a/2i0a_pocket.pdb
REMARK  210 active torsions:
REMARK  status: ('A' for Active; 'I' for Inactive)
REMARK    1  A    between atoms: _1  and  _3
REMARK    2  A    between atoms: _3  and  _4
REMARK    3  A    between atoms: _3  and  _6
REMARK    4  A    between atoms: _6  and  _7
REMARK    5  A    between atoms: _7  and  _8
REMARK    6  A    between atoms: _8  and  _9
REMARK    7  A    between atoms: _18  and  _20
REMARK    8  A    between atoms: _20  and  _21
REMARK    9  A    between atoms: _20  and  _23
REMARK   10  A    between atoms: _23  and  _24
REMARK   11  A    between atoms: _27  and  _29
REMARK   12  A    between atoms: _29  and  _30
REMARK   13  A    between atoms: _29  and  _32
REMARK   14  A    between atoms: _32  and  _33
REMARK   15  A    between atoms: _36  and  _38
REMARK   16  A    between atoms: _38  and  _39
REMARK   17  A    between atoms: _38  and  _41
REMARK   18  A    between atoms: _41  and  _42
REMARK   19  A    between atoms: _45  and  _47
REMARK   20  A    between atoms: _47  and  _48
REMARK   21  A    between atoms: _47  and  _50
REMARK   22  A    between atoms: _50  and  _51
REMARK   23  A    between atoms: _54  and  _56
REMARK   24  A    between atoms: _56  and  _57
REMARK   25  A    between atoms: _59  and  _61
REMARK   26  A    between atoms: _61  and  _62
REMARK   27  A    between atoms: _65  and  _67
REMARK   28  A    between atoms: _67  and  _68
REMARK   29  A    between atoms: _67  and  _70
REMARK   30  A    between atoms: _70  and  _71
REMARK   31  A    between atoms: _74  and  _76
REMARK   32  A    between atoms: _76  and  _77
REMARK   33  A    between atoms: _76  and  _79
REMARK   34  A    between atoms: _79  and  _80
REMARK   35  A    between atoms: _83  and  _85
REMARK   36  A    between atoms: _85  and  _86
REMARK   37  A    between atoms: _85  and  _88
REMARK   38  A    between atoms: _88  and  _89
REMARK   39  A    between atoms: _92  and  _94
REMARK   40  A    between atoms: _94  and  _95
REMARK   41  A    between atoms: _94  and  _97
REMARK   42  A    between atoms: _100  and  _102
REMARK   43  A    between atoms: _102  and  _103
REMARK   44  A    between atoms: _102  and  _105
REMARK   45  A    between atoms: _105  and  _106
REMARK   46  A    between atoms: _106  and  _107
REMARK   47  A    between atoms: _109  and  _111
REMARK   48  A    between atoms: _111  and  _112
REMARK   49  A    between atoms: _111  and  _114
REMARK   50  A    between atoms: _114  and  _115
REMARK   51  A    between atoms: _118  and  _120
REMARK   52  A    between atoms: _120  and  _121
REMARK   53  A    between atoms: _123  and  _125
REMARK   54  A    between atoms: _125  and  _126
REMARK   55  A    between atoms: _128  and  _130
REMARK   56  A    between atoms: _130  and  _131
REMARK   57  A    between atoms: _130  and  _133
REMARK   58  A    between atoms: _133  and  _134
REMARK   59  A    between atoms: _137  and  _139
REMARK   60  A    between atoms: _139  and  _140
REMARK   61  A    between atoms: _142  and  _144
REMARK   62  A    between atoms: _144  and  _145
REMARK   63  A    between atoms: _147  and  _149
REMARK   64  A    between atoms: _149  and  _150
REMARK   65  A    between atoms: _149  and  _152
REMARK   66  A    between atoms: _152  and  _153
REMARK   67  A    between atoms: _159  and  _161
REMARK   68  A    between atoms: _161  and  _162
REMARK   69  A    between atoms: _161  and  _164
REMARK   70  A    between atoms: _164  and  _165
REMARK   71  A    between atoms: _169  and  _170
REMARK   72  A    between atoms: _175  and  _177
REMARK   73  A    between atoms: _177  and  _178
REMARK   74  A    between atoms: _177  and  _180
REMARK   75  A    between atoms: _183  and  _185
REMARK   76  A    between atoms: _185  and  _186
REMARK   77  A    between atoms: _185  and  _188
REMARK   78  A    between atoms: _188  and  _189
REMARK   79  A    between atoms: _194  and  _196
REMARK   80  A    between atoms: _196  and  _197
REMARK   81  A    between atoms: _196  and  _199
REMARK   82  A    between atoms: _199  and  _200
REMARK   83  A    between atoms: _203  and  _205
REMARK   84  A    between atoms: _205  and  _206
REMARK   85  A    between atoms: _205  and  _208
REMARK   86  A    between atoms: _208  and  _209
REMARK   87  A    between atoms: _212  and  _214
REMARK   88  A    between atoms: _214  and  _215
REMARK   89  A    between atoms: _217  and  _219
REMARK   90  A    between atoms: _219  and  _220
REMARK   91  A    between atoms: _219  and  _222
REMARK   92  A    between atoms: _222  and  _223
REMARK   93  A    between atoms: _223  and  _224
REMARK   94  A    between atoms: _224  and  _225
REMARK   95  A    between atoms: _234  and  _236
REMARK   96  A    between atoms: _236  and  _237
REMARK   97  A    between atoms: _236  and  _239
REMARK   98  A    between atoms: _239  and  _240
REMARK   99  A    between atoms: _240  and  _241
REMARK  100  A    between atoms: _241  and  _242
REMARK  101  A    between atoms: _251  and  _253
REMARK  102  A    between atoms: _253  and  _254
REMARK  103  A    between atoms: _253  and  _256
REMARK  104  A    between atoms: _256  and  _257
REMARK  105  A    between atoms: _260  and  _262
REMARK  106  A    between atoms: _262  and  _263
REMARK  107  A    between atoms: _262  and  _265
REMARK  108  A    between atoms: _265  and  _266
REMARK  109  A    between atoms: _269  and  _271
REMARK  110  A    between atoms: _271  and  _272
REMARK  111  A    between atoms: _271  and  _274
REMARK  112  A    between atoms: _274  and  _275
REMARK  113  A    between atoms: _278  and  _280
REMARK  114  A    between atoms: _280  and  _281
REMARK  115  A    between atoms: _280  and  _283
REMARK  116  A    between atoms: _283  and  _284
REMARK  117  A    between atoms: _287  and  _289
REMARK  118  A    between atoms: _289  and  _290
REMARK  119  A    between atoms: _292  and  _294
REMARK  120  A    between atoms: _294  and  _295
REMARK  121  A    between atoms: _298  and  _300
REMARK  122  A    between atoms: _300  and  _301
REMARK  123  A    between atoms: _300  and  _303
REMARK  124  A    between atoms: _303  and  _304
REMARK  125  A    between atoms: _307  and  _309
REMARK  126  A    between atoms: _309  and  _310
REMARK  127  A    between atoms: _309  and  _312
REMARK  128  A    between atoms: _312  and  _313
REMARK  129  A    between atoms: _316  and  _318
REMARK  130  A    between atoms: _318  and  _319
REMARK  131  A    between atoms: _318  and  _321
REMARK  132  A    between atoms: _321  and  _322
REMARK  133  A    between atoms: _325  and  _327
REMARK  134  A    between atoms: _327  and  _328
REMARK  135  A    between atoms: _327  and  _330
REMARK  136  A    between atoms: _333  and  _335
REMARK  137  A    between atoms: _335  and  _336
REMARK  138  A    between atoms: _335  and  _338
REMARK  139  A    between atoms: _338  and  _339
REMARK  140  A    between atoms: _339  and  _340
REMARK  141  A    between atoms: _340  and  _341
REMARK  142  A    between atoms: _341  and  _342
REMARK  143  A    between atoms: _346  and  _348
REMARK  144  A    between atoms: _348  and  _349
REMARK  145  A    between atoms: _348  and  _351
REMARK  146  A    between atoms: _351  and  _352
REMARK  147  A    between atoms: _352  and  _353
REMARK  148  A    between atoms: _355  and  _357
REMARK  149  A    between atoms: _357  and  _358
REMARK  150  A    between atoms: _357  and  _360
REMARK  151  A    between atoms: _360  and  _361
REMARK  152  A    between atoms: _364  and  _366
REMARK  153  A    between atoms: _366  and  _367
REMARK  154  A    between atoms: _369  and  _371
REMARK  155  A    between atoms: _371  and  _372
REMARK  156  A    between atoms: _374  and  _376
REMARK  157  A    between atoms: _376  and  _377
REMARK  158  A    between atoms: _376  and  _379
REMARK  159  A    between atoms: _379  and  _380
REMARK  160  A    between atoms: _383  and  _385
REMARK  161  A    between atoms: _385  and  _386
REMARK  162  A    between atoms: _388  and  _390
REMARK  163  A    between atoms: _390  and  _391
REMARK  164  A    between atoms: _393  and  _395
REMARK  165  A    between atoms: _395  and  _396
REMARK  166  A    between atoms: _395  and  _398
REMARK  167  A    between atoms: _398  and  _399
REMARK  168  A    between atoms: _405  and  _407
REMARK  169  A    between atoms: _407  and  _408
REMARK  170  A    between atoms: _407  and  _410
REMARK  171  A    between atoms: _410  and  _411
REMARK  172  A    between atoms: _414  and  _416
REMARK  173  A    between atoms: _416  and  _417
REMARK  174  A    between atoms: _416  and  _419
REMARK  175  A    between atoms: _422  and  _424
REMARK  176  A    between atoms: _424  and  _425
REMARK  177  A    between atoms: _424  and  _427
REMARK  178  A    between atoms: _427  and  _428
REMARK  179  A    between atoms: _431  and  _433
REMARK  180  A    between atoms: _433  and  _434
REMARK  181  A    between atoms: _433  and  _436
REMARK  182  A    between atoms: _436  and  _437
REMARK  183  A    between atoms: _441  and  _442
REMARK  184  A    between atoms: _447  and  _449
REMARK  185  A    between atoms: _449  and  _450
REMARK  186  A    between atoms: _449  and  _452
REMARK  187  A    between atoms: _455  and  _457
REMARK  188  A    between atoms: _457  and  _458
REMARK  189  A    between atoms: _457  and  _460
REMARK  190  A    between atoms: _460  and  _461
REMARK  191  A    between atoms: _466  and  _468
REMARK  192  A    between atoms: _468  and  _469
REMARK  193  A    between atoms: _468  and  _471
REMARK  194  A    between atoms: _471  and  _472
REMARK  195  A    between atoms: _475  and  _477
REMARK  196  A    between atoms: _477  and  _478
REMARK  197  A    between atoms: _477  and  _480
REMARK  198  A    between atoms: _480  and  _481
REMARK  199  A    between atoms: _484  and  _486
REMARK  200  A    between atoms: _486  and  _487
REMARK  201  A    between atoms: _489  and  _491
REMARK  202  A    between atoms: _491  and  _492
REMARK  203  A    between atoms: _491  and  _494
REMARK  204  A    between atoms: _494  and  _495
REMARK  205  A    between atoms: _495  and  _496
REMARK  206  A    between atoms: _496  and  _497
REMARK  207  A    between atoms: _506  and  _508
REMARK  208  A    between atoms: _508  and  _509
REMARK  209  A    between atoms: _508  and  _511
REMARK  210  A    between atoms: _511  and  _512
REMARK                            x       y       z     vdW  Elec       q    Type
REMARK                         _______ _______ _______ _____ _____    ______ ____
ROOT
ATOM      1  O   HOH     1       9.918  38.997  22.364  0.00  0.00    +0.000 OA
ENDROOT
TORSDOF 0
REMARK  Name = ../refined-set-2016/2i0a/2i0a_pocket.pdb
REMARK  210 active torsions:
REMARK  status: ('A' for Active; 'I' for Inactive)
REMARK    1  A    between atoms: _1  and  _3
REMARK    2  A    between atoms: _3  and  _4
REMARK    3  A    between atoms: _3  and  _6
REMARK    4  A    between atoms: _6  and  _7
REMARK    5  A    between atoms: _7  and  _8
REMARK    6  A    between atoms: _8  and  _9
REMARK    7  A    between atoms: _18  and  _20
REMARK    8  A    between atoms: _20  and  _21
REMARK    9  A    between atoms: _20  and  _23
REMARK   10  A    between atoms: _23  and  _24
REMARK   11  A    between atoms: _27  and  _29
REMARK   12  A    between atoms: _29  and  _30
REMARK   13  A    between atoms: _29  and  _32
REMARK   14  A    between atoms: _32  and  _33
REMARK   15  A    between atoms: _36  and  _38
REMARK   16  A    between atoms: _38  and  _39
REMARK   17  A    between atoms: _38  and  _41
REMARK   18  A    between atoms: _41  and  _42
REMARK   19  A    between atoms: _45  and  _47
REMARK   20  A    between atoms: _47  and  _48
REMARK   21  A    between atoms: _47  and  _50
REMARK   22  A    between atoms: _50  and  _51
REMARK   23  A    between atoms: _54  and  _56
REMARK   24  A    between atoms: _56  and  _57
REMARK   25  A    between atoms: _59  and  _61
REMARK   26  A    between atoms: _61  and  _62
REMARK   27  A    between atoms: _65  and  _67
REMARK   28  A    between atoms: _67  and  _68
REMARK   29  A    between atoms: _67  and  _70
REMARK   30  A    between atoms: _70  and  _71
REMARK   31  A    between atoms: _74  and  _76
REMARK   32  A    between atoms: _76  and  _77
REMARK   33  A    between atoms: _76  and  _79
REMARK   34  A    between atoms: _79  and  _80
REMARK   35  A    between atoms: _83  and  _85
REMARK   36  A    between atoms: _85  and  _86
REMARK   37  A    between atoms: _85  and  _88
REMARK   38  A    between atoms: _88  and  _89
REMARK   39  A    between atoms: _92  and  _94
REMARK   40  A    between atoms: _94  and  _95
REMARK   41  A    between atoms: _94  and  _97
REMARK   42  A    between atoms: _100  and  _102
REMARK   43  A    between atoms: _102  and  _103
REMARK   44  A    between atoms: _102  and  _105
REMARK   45  A    between atoms: _105  and  _106
REMARK   46  A    between atoms: _106  and  _107
REMARK   47  A    between atoms: _109  and  _111
REMARK   48  A    between atoms: _111  and  _112
REMARK   49  A    between atoms: _111  and  _114
REMARK   50  A    between atoms: _114  and  _115
REMARK   51  A    between atoms: _118  and  _120
REMARK   52  A    between atoms: _120  and  _121
REMARK   53  A    between atoms: _123  and  _125
REMARK   54  A    between atoms: _125  and  _126
REMARK   55  A    between atoms: _128  and  _130
REMARK   56  A    between atoms: _130  and  _131
REMARK   57  A    between atoms: _130  and  _133
REMARK   58  A    between atoms: _133  and  _134
REMARK   59  A    between atoms: _137  and  _139
REMARK   60  A    between atoms: _139  and  _140
REMARK   61  A    between atoms: _142  and  _144
REMARK   62  A    between atoms: _144  and  _145
REMARK   63  A    between atoms: _147  and  _149
REMARK   64  A    between atoms: _149  and  _150
REMARK   65  A    between atoms: _149  and  _152
REMARK   66  A    between atoms: _152  and  _153
REMARK   67  A    between atoms: _159  and  _161
REMARK   68  A    between atoms: _161  and  _162
REMARK   69  A    between atoms: _161  and  _164
REMARK   70  A    between atoms: _164  and  _165
REMARK   71  A    between atoms: _169  and  _170
REMARK   72  A    between atoms: _175  and  _177
REMARK   73  A    between atoms: _177  and  _178
REMARK   74  A    between atoms: _177  and  _180
REMARK   75  A    between atoms: _183  and  _185
REMARK   76  A    between atoms: _185  and  _186
REMARK   77  A    between atoms: _185  and  _188
REMARK   78  A    between atoms: _188  and  _189
REMARK   79  A    between atoms: _194  and  _196
REMARK   80  A    between atoms: _196  and  _197
REMARK   81  A    between atoms: _196  and  _199
REMARK   82  A    between atoms: _199  and  _200
REMARK   83  A    between atoms: _203  and  _205
REMARK   84  A    between atoms: _205  and  _206
REMARK   85  A    between atoms: _205  and  _208
REMARK   86  A    between atoms: _208  and  _209
REMARK   87  A    between atoms: _212  and  _214
REMARK   88  A    between atoms: _214  and  _215
REMARK   89  A    between atoms: _217  and  _219
REMARK   90  A    between atoms: _219  and  _220
REMARK   91  A    between atoms: _219  and  _222
REMARK   92  A    between atoms: _222  and  _223
REMARK   93  A    between atoms: _223  and  _224
REMARK   94  A    between atoms: _224  and  _225
REMARK   95  A    between atoms: _234  and  _236
REMARK   96  A    between atoms: _236  and  _237
REMARK   97  A    between atoms: _236  and  _239
REMARK   98  A    between atoms: _239  and  _240
REMARK   99  A    between atoms: _240  and  _241
REMARK  100  A    between atoms: _241  and  _242
REMARK  101  A    between atoms: _251  and  _253
REMARK  102  A    between atoms: _253  and  _254
REMARK  103  A    between atoms: _253  and  _256
REMARK  104  A    between atoms: _256  and  _257
REMARK  105  A    between atoms: _260  and  _262
REMARK  106  A    between atoms: _262  and  _263
REMARK  107  A    between atoms: _262  and  _265
REMARK  108  A    between atoms: _265  and  _266
REMARK  109  A    between atoms: _269  and  _271
REMARK  110  A    between atoms: _271  and  _272
REMARK  111  A    between atoms: _271  and  _274
REMARK  112  A    between atoms: _274  and  _275
REMARK  113  A    between atoms: _278  and  _280
REMARK  114  A    between atoms: _280  and  _281
REMARK  115  A    between atoms: _280  and  _283
REMARK  116  A    between atoms: _283  and  _284
REMARK  117  A    between atoms: _287  and  _289
REMARK  118  A    between atoms: _289  and  _290
REMARK  119  A    between atoms: _292  and  _294
REMARK  120  A    between atoms: _294  and  _295
REMARK  121  A    between atoms: _298  and  _300
REMARK  122  A    between atoms: _300  and  _301
REMARK  123  A    between atoms: _300  and  _303
REMARK  124  A    between atoms: _303  and  _304
REMARK  125  A    between atoms: _307  and  _309
REMARK  126  A    between atoms: _309  and  _310
REMARK  127  A    between atoms: _309  and  _312
REMARK  128  A    between atoms: _312  and  _313
REMARK  129  A    between atoms: _316  and  _318
REMARK  130  A    between atoms: _318  and  _319
REMARK  131  A    between atoms: _318  and  _321
REMARK  132  A    between atoms: _321  and  _322
REMARK  133  A    between atoms: _325  and  _327
REMARK  134  A    between atoms: _327  and  _328
REMARK  135  A    between atoms: _327  and  _330
REMARK  136  A    between atoms: _333  and  _335
REMARK  137  A    between atoms: _335  and  _336
REMARK  138  A    between atoms: _335  and  _338
REMARK  139  A    between atoms: _338  and  _339
REMARK  140  A    between atoms: _339  and  _340
REMARK  141  A    between atoms: _340  and  _341
REMARK  142  A    between atoms: _341  and  _342
REMARK  143  A    between atoms: _346  and  _348
REMARK  144  A    between atoms: _348  and  _349
REMARK  145  A    between atoms: _348  and  _351
REMARK  146  A    between atoms: _351  and  _352
REMARK  147  A    between atoms: _352  and  _353
REMARK  148  A    between atoms: _355  and  _357
REMARK  149  A    between atoms: _357  and  _358
REMARK  150  A    between atoms: _357  and  _360
REMARK  151  A    between atoms: _360  and  _361
REMARK  152  A    between atoms: _364  and  _366
REMARK  153  A    between atoms: _366  and  _367
REMARK  154  A    between atoms: _369  and  _371
REMARK  155  A    between atoms: _371  and  _372
REMARK  156  A    between atoms: _374  and  _376
REMARK  157  A    between atoms: _376  and  _377
REMARK  158  A    between atoms: _376  and  _379
REMARK  159  A    between atoms: _379  and  _380
REMARK  160  A    between atoms: _383  and  _385
REMARK  161  A    between atoms: _385  and  _386
REMARK  162  A    between atoms: _388  and  _390
REMARK  163  A    between atoms: _390  and  _391
REMARK  164  A    between atoms: _393  and  _395
REMARK  165  A    between atoms: _395  and  _396
REMARK  166  A    between atoms: _395  and  _398
REMARK  167  A    between atoms: _398  and  _399
REMARK  168  A    between atoms: _405  and  _407
REMARK  169  A    between atoms: _407  and  _408
REMARK  170  A    between atoms: _407  and  _410
REMARK  171  A    between atoms: _410  and  _411
REMARK  172  A    between atoms: _414  and  _416
REMARK  173  A    between atoms: _416  and  _417
REMARK  174  A    between atoms: _416  and  _419
REMARK  175  A    between atoms: _422  and  _424
REMARK  176  A    between atoms: _424  and  _425
REMARK  177  A    between atoms: _424  and  _427
REMARK  178  A    between atoms: _427  and  _428
REMARK  179  A    between atoms: _431  and  _433
REMARK  180  A    between atoms: _433  and  _434
REMARK  181  A    between atoms: _433  and  _436
REMARK  182  A    between atoms: _436  and  _437
REMARK  183  A    between atoms: _441  and  _442
REMARK  184  A    between atoms: _447  and  _449
REMARK  185  A    between atoms: _449  and  _450
REMARK  186  A    between atoms: _449  and  _452
REMARK  187  A    between atoms: _455  and  _457
REMARK  188  A    between atoms: _457  and  _458
REMARK  189  A    between atoms: _457  and  _460
REMARK  190  A    between atoms: _460  and  _461
REMARK  191  A    between atoms: _466  and  _468
REMARK  192  A    between atoms: _468  and  _469
REMARK  193  A    between atoms: _468  and  _471
REMARK  194  A    between atoms: _471  and  _472
REMARK  195  A    between atoms: _475  and  _477
REMARK  196  A    between atoms: _477  and  _478
REMARK  197  A    between atoms: _477  and  _480
REMARK  198  A    between atoms: _480  and  _481
REMARK  199  A    between atoms: _484  and  _486
REMARK  200  A    between atoms: _486  and  _487
REMARK  201  A    between atoms: _489  and  _491
REMARK  202  A    between atoms: _491  and  _492
REMARK  203  A    between atoms: _491  and  _494
REMARK  204  A    between atoms: _494  and  _495
REMARK  205  A    between atoms: _495  and  _496
REMARK  206  A    between atoms: _496  and  _497
REMARK  207  A    between atoms: _506  and  _508
REMARK  208  A    between atoms: _508  and  _509
REMARK  209  A    between atoms: _508  and  _511
REMARK  210  A    between atoms: _511  and  _512
REMARK                            x       y       z     vdW  Elec       q    Type
REMARK                         _______ _______ _______ _____ _____    ______ ____
ROOT
ATOM      1  O   HOH     1      12.204  20.721  10.829  0.00  0.00    +0.000 OA
ENDROOT
TORSDOF 0
REMARK  Name = ../refined-set-2016/2i0a/2i0a_pocket.pdb
REMARK  210 active torsions:
REMARK  status: ('A' for Active; 'I' for Inactive)
REMARK    1  A    between atoms: _1  and  _3
REMARK    2  A    between atoms: _3  and  _4
REMARK    3  A    between atoms: _3  and  _6
REMARK    4  A    between atoms: _6  and  _7
REMARK    5  A    between atoms: _7  and  _8
REMARK    6  A    between atoms: _8  and  _9
REMARK    7  A    between atoms: _18  and  _20
REMARK    8  A    between atoms: _20  and  _21
REMARK    9  A    between atoms: _20  and  _23
REMARK   10  A    between atoms: _23  and  _24
REMARK   11  A    between atoms: _27  and  _29
REMARK   12  A    between atoms: _29  and  _30
REMARK   13  A    between atoms: _29  and  _32
REMARK   14  A    between atoms: _32  and  _33
REMARK   15  A    between atoms: _36  and  _38
REMARK   16  A    between atoms: _38  and  _39
REMARK   17  A    between atoms: _38  and  _41
REMARK   18  A    between atoms: _41  and  _42
REMARK   19  A    between atoms: _45  and  _47
REMARK   20  A    between atoms: _47  and  _48
REMARK   21  A    between atoms: _47  and  _50
REMARK   22  A    between atoms: _50  and  _51
REMARK   23  A    between atoms: _54  and  _56
REMARK   24  A    between atoms: _56  and  _57
REMARK   25  A    between atoms: _59  and  _61
REMARK   26  A    between atoms: _61  and  _62
REMARK   27  A    between atoms: _65  and  _67
REMARK   28  A    between atoms: _67  and  _68
REMARK   29  A    between atoms: _67  and  _70
REMARK   30  A    between atoms: _70  and  _71
REMARK   31  A    between atoms: _74  and  _76
REMARK   32  A    between atoms: _76  and  _77
REMARK   33  A    between atoms: _76  and  _79
REMARK   34  A    between atoms: _79  and  _80
REMARK   35  A    between atoms: _83  and  _85
REMARK   36  A    between atoms: _85  and  _86
REMARK   37  A    between atoms: _85  and  _88
REMARK   38  A    between atoms: _88  and  _89
REMARK   39  A    between atoms: _92  and  _94
REMARK   40  A    between atoms: _94  and  _95
REMARK   41  A    between atoms: _94  and  _97
REMARK   42  A    between atoms: _100  and  _102
REMARK   43  A    between atoms: _102  and  _103
REMARK   44  A    between atoms: _102  and  _105
REMARK   45  A    between atoms: _105  and  _106
REMARK   46  A    between atoms: _106  and  _107
REMARK   47  A    between atoms: _109  and  _111
REMARK   48  A    between atoms: _111  and  _112
REMARK   49  A    between atoms: _111  and  _114
REMARK   50  A    between atoms: _114  and  _115
REMARK   51  A    between atoms: _118  and  _120
REMARK   52  A    between atoms: _120  and  _121
REMARK   53  A    between atoms: _123  and  _125
REMARK   54  A    between atoms: _125  and  _126
REMARK   55  A    between atoms: _128  and  _130
REMARK   56  A    between atoms: _130  and  _131
REMARK   57  A    between atoms: _130  and  _133
REMARK   58  A    between atoms: _133  and  _134
REMARK   59  A    between atoms: _137  and  _139
REMARK   60  A    between atoms: _139  and  _140
REMARK   61  A    between atoms: _142  and  _144
REMARK   62  A    between atoms: _144  and  _145
REMARK   63  A    between atoms: _147  and  _149
REMARK   64  A    between atoms: _149  and  _150
REMARK   65  A    between atoms: _149  and  _152
REMARK   66  A    between atoms: _152  and  _153
REMARK   67  A    between atoms: _159  and  _161
REMARK   68  A    between atoms: _161  and  _162
REMARK   69  A    between atoms: _161  and  _164
REMARK   70  A    between atoms: _164  and  _165
REMARK   71  A    between atoms: _169  and  _170
REMARK   72  A    between atoms: _175  and  _177
REMARK   73  A    between atoms: _177  and  _178
REMARK   74  A    between atoms: _177  and  _180
REMARK   75  A    between atoms: _183  and  _185
REMARK   76  A    between atoms: _185  and  _186
REMARK   77  A    between atoms: _185  and  _188
REMARK   78  A    between atoms: _188  and  _189
REMARK   79  A    between atoms: _194  and  _196
REMARK   80  A    between atoms: _196  and  _197
REMARK   81  A    between atoms: _196  and  _199
REMARK   82  A    between atoms: _199  and  _200
REMARK   83  A    between atoms: _203  and  _205
REMARK   84  A    between atoms: _205  and  _206
REMARK   85  A    between atoms: _205  and  _208
REMARK   86  A    between atoms: _208  and  _209
REMARK   87  A    between atoms: _212  and  _214
REMARK   88  A    between atoms: _214  and  _215
REMARK   89  A    between atoms: _217  and  _219
REMARK   90  A    between atoms: _219  and  _220
REMARK   91  A    between atoms: _219  and  _222
REMARK   92  A    between atoms: _222  and  _223
REMARK   93  A    between atoms: _223  and  _224
REMARK   94  A    between atoms: _224  and  _225
REMARK   95  A    between atoms: _234  and  _236
REMARK   96  A    between atoms: _236  and  _237
REMARK   97  A    between atoms: _236  and  _239
REMARK   98  A    between atoms: _239  and  _240
REMARK   99  A    between atoms: _240  and  _241
REMARK  100  A    between atoms: _241  and  _242
REMARK  101  A    between atoms: _251  and  _253
REMARK  102  A    between atoms: _253  and  _254
REMARK  103  A    between atoms: _253  and  _256
REMARK  104  A    between atoms: _256  and  _257
REMARK  105  A    between atoms: _260  and  _262
REMARK  106  A    between atoms: _262  and  _263
REMARK  107  A    between atoms: _262  and  _265
REMARK  108  A    between atoms: _265  and  _266
REMARK  109  A    between atoms: _269  and  _271
REMARK  110  A    between atoms: _271  and  _272
REMARK  111  A    between atoms: _271  and  _274
REMARK  112  A    between atoms: _274  and  _275
REMARK  113  A    between atoms: _278  and  _280
REMARK  114  A    between atoms: _280  and  _281
REMARK  115  A    between atoms: _280  and  _283
REMARK  116  A    between atoms: _283  and  _284
REMARK  117  A    between atoms: _287  and  _289
REMARK  118  A    between atoms: _289  and  _290
REMARK  119  A    between atoms: _292  and  _294
REMARK  120  A    between atoms: _294  and  _295
REMARK  121  A    between atoms: _298  and  _300
REMARK  122  A    between atoms: _300  and  _301
REMARK  123  A    between atoms: _300  and  _303
REMARK  124  A    between atoms: _303  and  _304
REMARK  125  A    between atoms: _307  and  _309
REMARK  126  A    between atoms: _309  and  _310
REMARK  127  A    between atoms: _309  and  _312
REMARK  128  A    between atoms: _312  and  _313
REMARK  129  A    between atoms: _316  and  _318
REMARK  130  A    between atoms: _318  and  _319
REMARK  131  A    between atoms: _318  and  _321
REMARK  132  A    between atoms: _321  and  _322
REMARK  133  A    between atoms: _325  and  _327
REMARK  134  A    between atoms: _327  and  _328
REMARK  135  A    between atoms: _327  and  _330
REMARK  136  A    between atoms: _333  and  _335
REMARK  137  A    between atoms: _335  and  _336
REMARK  138  A    between atoms: _335  and  _338
REMARK  139  A    between atoms: _338  and  _339
REMARK  140  A    between atoms: _339  and  _340
REMARK  141  A    between atoms: _340  and  _341
REMARK  142  A    between atoms: _341  and  _342
REMARK  143  A    between atoms: _346  and  _348
REMARK  144  A    between atoms: _348  and  _349
REMARK  145  A    between atoms: _348  and  _351
REMARK  146  A    between atoms: _351  and  _352
REMARK  147  A    between atoms: _352  and  _353
REMARK  148  A    between atoms: _355  and  _357
REMARK  149  A    between atoms: _357  and  _358
REMARK  150  A    between atoms: _357  and  _360
REMARK  151  A    between atoms: _360  and  _361
REMARK  152  A    between atoms: _364  and  _366
REMARK  153  A    between atoms: _366  and  _367
REMARK  154  A    between atoms: _369  and  _371
REMARK  155  A    between atoms: _371  and  _372
REMARK  156  A    between atoms: _374  and  _376
REMARK  157  A    between atoms: _376  and  _377
REMARK  158  A    between atoms: _376  and  _379
REMARK  159  A    between atoms: _379  and  _380
REMARK  160  A    between atoms: _383  and  _385
REMARK  161  A    between atoms: _385  and  _386
REMARK  162  A    between atoms: _388  and  _390
REMARK  163  A    between atoms: _390  and  _391
REMARK  164  A    between atoms: _393  and  _395
REMARK  165  A    between atoms: _395  and  _396
REMARK  166  A    between atoms: _395  and  _398
REMARK  167  A    between atoms: _398  and  _399
REMARK  168  A    between atoms: _405  and  _407
REMARK  169  A    between atoms: _407  and  _408
REMARK  170  A    between atoms: _407  and  _410
REMARK  171  A    between atoms: _410  and  _411
REMARK  172  A    between atoms: _414  and  _416
REMARK  173  A    between atoms: _416  and  _417
REMARK  174  A    between atoms: _416  and  _419
REMARK  175  A    between atoms: _422  and  _424
REMARK  176  A    between atoms: _424  and  _425
REMARK  177  A    between atoms: _424  and  _427
REMARK  178  A    between atoms: _427  and  _428
REMARK  179  A    between atoms: _431  and  _433
REMARK  180  A    between atoms: _433  and  _434
REMARK  181  A    between atoms: _433  and  _436
REMARK  182  A    between atoms: _436  and  _437
REMARK  183  A    between atoms: _441  and  _442
REMARK  184  A    between atoms: _447  and  _449
REMARK  185  A    between atoms: _449  and  _450
REMARK  186  A    between atoms: _449  and  _452
REMARK  187  A    between atoms: _455  and  _457
REMARK  188  A    between atoms: _457  and  _458
REMARK  189  A    between atoms: _457  and  _460
REMARK  190  A    between atoms: _460  and  _461
REMARK  191  A    between atoms: _466  and  _468
REMARK  192  A    between atoms: _468  and  _469
REMARK  193  A    between atoms: _468  and  _471
REMARK  194  A    between atoms: _471  and  _472
REMARK  195  A    between atoms: _475  and  _477
REMARK  196  A    between atoms: _477  and  _478
REMARK  197  A    between atoms: _477  and  _480
REMARK  198  A    between atoms: _480  and  _481
REMARK  199  A    between atoms: _484  and  _486
REMARK  200  A    between atoms: _486  and  _487
REMARK  201  A    between atoms: _489  and  _491
REMARK  202  A    between atoms: _491  and  _492
REMARK  203  A    between atoms: _491  and  _494
REMARK  204  A    between atoms: _494  and  _495
REMARK  205  A    between atoms: _495  and  _496
REMARK  206  A    between atoms: _496  and  _497
REMARK  207  A    between atoms: _506  and  _508
REMARK  208  A    between atoms: _508  and  _509
REMARK  209  A    between atoms: _508  and  _511
REMARK  210  A    between atoms: _511  and  _512
REMARK                            x       y       z     vdW  Elec       q    Type
REMARK                         _______ _______ _______ _____ _____    ______ ____
ROOT
ATOM      1  O   HOH     1      14.860  20.196  10.935  0.00  0.00    +0.000 OA
ENDROOT
TORSDOF 0
REMARK  Name = ../refined-set-2016/2i0a/2i0a_pocket.pdb
REMARK  210 active torsions:
REMARK  status: ('A' for Active; 'I' for Inactive)
REMARK    1  A    between atoms: _1  and  _3
REMARK    2  A    between atoms: _3  and  _4
REMARK    3  A    between atoms: _3  and  _6
REMARK    4  A    between atoms: _6  and  _7
REMARK    5  A    between atoms: _7  and  _8
REMARK    6  A    between atoms: _8  and  _9
REMARK    7  A    between atoms: _18  and  _20
REMARK    8  A    between atoms: _20  and  _21
REMARK    9  A    between atoms: _20  and  _23
REMARK   10  A    between atoms: _23  and  _24
REMARK   11  A    between atoms: _27  and  _29
REMARK   12  A    between atoms: _29  and  _30
REMARK   13  A    between atoms: _29  and  _32
REMARK   14  A    between atoms: _32  and  _33
REMARK   15  A    between atoms: _36  and  _38
REMARK   16  A    between atoms: _38  and  _39
REMARK   17  A    between atoms: _38  and  _41
REMARK   18  A    between atoms: _41  and  _42
REMARK   19  A    between atoms: _45  and  _47
REMARK   20  A    between atoms: _47  and  _48
REMARK   21  A    between atoms: _47  and  _50
REMARK   22  A    between atoms: _50  and  _51
REMARK   23  A    between atoms: _54  and  _56
REMARK   24  A    between atoms: _56  and  _57
REMARK   25  A    between atoms: _59  and  _61
REMARK   26  A    between atoms: _61  and  _62
REMARK   27  A    between atoms: _65  and  _67
REMARK   28  A    between atoms: _67  and  _68
REMARK   29  A    between atoms: _67  and  _70
REMARK   30  A    between atoms: _70  and  _71
REMARK   31  A    between atoms: _74  and  _76
REMARK   32  A    between atoms: _76  and  _77
REMARK   33  A    between atoms: _76  and  _79
REMARK   34  A    between atoms: _79  and  _80
REMARK   35  A    between atoms: _83  and  _85
REMARK   36  A    between atoms: _85  and  _86
REMARK   37  A    between atoms: _85  and  _88
REMARK   38  A    between atoms: _88  and  _89
REMARK   39  A    between atoms: _92  and  _94
REMARK   40  A    between atoms: _94  and  _95
REMARK   41  A    between atoms: _94  and  _97
REMARK   42  A    between atoms: _100  and  _102
REMARK   43  A    between atoms: _102  and  _103
REMARK   44  A    between atoms: _102  and  _105
REMARK   45  A    between atoms: _105  and  _106
REMARK   46  A    between atoms: _106  and  _107
REMARK   47  A    between atoms: _109  and  _111
REMARK   48  A    between atoms: _111  and  _112
REMARK   49  A    between atoms: _111  and  _114
REMARK   50  A    between atoms: _114  and  _115
REMARK   51  A    between atoms: _118  and  _120
REMARK   52  A    between atoms: _120  and  _121
REMARK   53  A    between atoms: _123  and  _125
REMARK   54  A    between atoms: _125  and  _126
REMARK   55  A    between atoms: _128  and  _130
REMARK   56  A    between atoms: _130  and  _131
REMARK   57  A    between atoms: _130  and  _133
REMARK   58  A    between atoms: _133  and  _134
REMARK   59  A    between atoms: _137  and  _139
REMARK   60  A    between atoms: _139  and  _140
REMARK   61  A    between atoms: _142  and  _144
REMARK   62  A    between atoms: _144  and  _145
REMARK   63  A    between atoms: _147  and  _149
REMARK   64  A    between atoms: _149  and  _150
REMARK   65  A    between atoms: _149  and  _152
REMARK   66  A    between atoms: _152  and  _153
REMARK   67  A    between atoms: _159  and  _161
REMARK   68  A    between atoms: _161  and  _162
REMARK   69  A    between atoms: _161  and  _164
REMARK   70  A    between atoms: _164  and  _165
REMARK   71  A    between atoms: _169  and  _170
REMARK   72  A    between atoms: _175  and  _177
REMARK   73  A    between atoms: _177  and  _178
REMARK   74  A    between atoms: _177  and  _180
REMARK   75  A    between atoms: _183  and  _185
REMARK   76  A    between atoms: _185  and  _186
REMARK   77  A    between atoms: _185  and  _188
REMARK   78  A    between atoms: _188  and  _189
REMARK   79  A    between atoms: _194  and  _196
REMARK   80  A    between atoms: _196  and  _197
REMARK   81  A    between atoms: _196  and  _199
REMARK   82  A    between atoms: _199  and  _200
REMARK   83  A    between atoms: _203  and  _205
REMARK   84  A    between atoms: _205  and  _206
REMARK   85  A    between atoms: _205  and  _208
REMARK   86  A    between atoms: _208  and  _209
REMARK   87  A    between atoms: _212  and  _214
REMARK   88  A    between atoms: _214  and  _215
REMARK   89  A    between atoms: _217  and  _219
REMARK   90  A    between atoms: _219  and  _220
REMARK   91  A    between atoms: _219  and  _222
REMARK   92  A    between atoms: _222  and  _223
REMARK   93  A    between atoms: _223  and  _224
REMARK   94  A    between atoms: _224  and  _225
REMARK   95  A    between atoms: _234  and  _236
REMARK   96  A    between atoms: _236  and  _237
REMARK   97  A    between atoms: _236  and  _239
REMARK   98  A    between atoms: _239  and  _240
REMARK   99  A    between atoms: _240  and  _241
REMARK  100  A    between atoms: _241  and  _242
REMARK  101  A    between atoms: _251  and  _253
REMARK  102  A    between atoms: _253  and  _254
REMARK  103  A    between atoms: _253  and  _256
REMARK  104  A    between atoms: _256  and  _257
REMARK  105  A    between atoms: _260  and  _262
REMARK  106  A    between atoms: _262  and  _263
REMARK  107  A    between atoms: _262  and  _265
REMARK  108  A    between atoms: _265  and  _266
REMARK  109  A    between atoms: _269  and  _271
REMARK  110  A    between atoms: _271  and  _272
REMARK  111  A    between atoms: _271  and  _274
REMARK  112  A    between atoms: _274  and  _275
REMARK  113  A    between atoms: _278  and  _280
REMARK  114  A    between atoms: _280  and  _281
REMARK  115  A    between atoms: _280  and  _283
REMARK  116  A    between atoms: _283  and  _284
REMARK  117  A    between atoms: _287  and  _289
REMARK  118  A    between atoms: _289  and  _290
REMARK  119  A    between atoms: _292  and  _294
REMARK  120  A    between atoms: _294  and  _295
REMARK  121  A    between atoms: _298  and  _300
REMARK  122  A    between atoms: _300  and  _301
REMARK  123  A    between atoms: _300  and  _303
REMARK  124  A    between atoms: _303  and  _304
REMARK  125  A    between atoms: _307  and  _309
REMARK  126  A    between atoms: _309  and  _310
REMARK  127  A    between atoms: _309  and  _312
REMARK  128  A    between atoms: _312  and  _313
REMARK  129  A    between atoms: _316  and  _318
REMARK  130  A    between atoms: _318  and  _319
REMARK  131  A    between atoms: _318  and  _321
REMARK  132  A    between atoms: _321  and  _322
REMARK  133  A    between atoms: _325  and  _327
REMARK  134  A    between atoms: _327  and  _328
REMARK  135  A    between atoms: _327  and  _330
REMARK  136  A    between atoms: _333  and  _335
REMARK  137  A    between atoms: _335  and  _336
REMARK  138  A    between atoms: _335  and  _338
REMARK  139  A    between atoms: _338  and  _339
REMARK  140  A    between atoms: _339  and  _340
REMARK  141  A    between atoms: _340  and  _341
REMARK  142  A    between atoms: _341  and  _342
REMARK  143  A    between atoms: _346  and  _348
REMARK  144  A    between atoms: _348  and  _349
REMARK  145  A    between atoms: _348  and  _351
REMARK  146  A    between atoms: _351  and  _352
REMARK  147  A    between atoms: _352  and  _353
REMARK  148  A    between atoms: _355  and  _357
REMARK  149  A    between atoms: _357  and  _358
REMARK  150  A    between atoms: _357  and  _360
REMARK  151  A    between atoms: _360  and  _361
REMARK  152  A    between atoms: _364  and  _366
REMARK  153  A    between atoms: _366  and  _367
REMARK  154  A    between atoms: _369  and  _371
REMARK  155  A    between atoms: _371  and  _372
REMARK  156  A    between atoms: _374  and  _376
REMARK  157  A    between atoms: _376  and  _377
REMARK  158  A    between atoms: _376  and  _379
REMARK  159  A    between atoms: _379  and  _380
REMARK  160  A    between atoms: _383  and  _385
REMARK  161  A    between atoms: _385  and  _386
REMARK  162  A    between atoms: _388  and  _390
REMARK  163  A    between atoms: _390  and  _391
REMARK  164  A    between atoms: _393  and  _395
REMARK  165  A    between atoms: _395  and  _396
REMARK  166  A    between atoms: _395  and  _398
REMARK  167  A    between atoms: _398  and  _399
REMARK  168  A    between atoms: _405  and  _407
REMARK  169  A    between atoms: _407  and  _408
REMARK  170  A    between atoms: _407  and  _410
REMARK  171  A    between atoms: _410  and  _411
REMARK  172  A    between atoms: _414  and  _416
REMARK  173  A    between atoms: _416  and  _417
REMARK  174  A    between atoms: _416  and  _419
REMARK  175  A    between atoms: _422  and  _424
REMARK  176  A    between atoms: _424  and  _425
REMARK  177  A    between atoms: _424  and  _427
REMARK  178  A    between atoms: _427  and  _428
REMARK  179  A    between atoms: _431  and  _433
REMARK  180  A    between atoms: _433  and  _434
REMARK  181  A    between atoms: _433  and  _436
REMARK  182  A    between atoms: _436  and  _437
REMARK  183  A    between atoms: _441  and  _442
REMARK  184  A    between atoms: _447  and  _449
REMARK  185  A    between atoms: _449  and  _450
REMARK  186  A    between atoms: _449  and  _452
REMARK  187  A    between atoms: _455  and  _457
REMARK  188  A    between atoms: _457  and  _458
REMARK  189  A    between atoms: _457  and  _460
REMARK  190  A    between atoms: _460  and  _461
REMARK  191  A    between atoms: _466  and  _468
REMARK  192  A    between atoms: _468  and  _469
REMARK  193  A    between atoms: _468  and  _471
REMARK  194  A    between atoms: _471  and  _472
REMARK  195  A    between atoms: _475  and  _477
REMARK  196  A    between atoms: _477  and  _478
REMARK  197  A    between atoms: _477  and  _480
REMARK  198  A    between atoms: _480  and  _481
REMARK  199  A    between atoms: _484  and  _486
REMARK  200  A    between atoms: _486  and  _487
REMARK  201  A    between atoms: _489  and  _491
REMARK  202  A    between atoms: _491  and  _492
REMARK  203  A    between atoms: _491  and  _494
REMARK  204  A    between atoms: _494  and  _495
REMARK  205  A    between atoms: _495  and  _496
REMARK  206  A    between atoms: _496  and  _497
REMARK  207  A    between atoms: _506  and  _508
REMARK  208  A    between atoms: _508  and  _509
REMARK  209  A    between atoms: _508  and  _511
REMARK  210  A    between atoms: _511  and  _512
REMARK                            x       y       z     vdW  Elec       q    Type
REMARK                         _______ _______ _______ _____ _____    ______ ____
ROOT
ATOM      1  O   HOH     1      21.040  36.458  16.029  0.00  0.00    +0.000 OA
ENDROOT
TORSDOF 0
REMARK  Name = ../refined-set-2016/2i0a/2i0a_pocket.pdb
REMARK  210 active torsions:
REMARK  status: ('A' for Active; 'I' for Inactive)
REMARK    1  A    between atoms: _1  and  _3
REMARK    2  A    between atoms: _3  and  _4
REMARK    3  A    between atoms: _3  and  _6
REMARK    4  A    between atoms: _6  and  _7
REMARK    5  A    between atoms: _7  and  _8
REMARK    6  A    between atoms: _8  and  _9
REMARK    7  A    between atoms: _18  and  _20
REMARK    8  A    between atoms: _20  and  _21
REMARK    9  A    between atoms: _20  and  _23
REMARK   10  A    between atoms: _23  and  _24
REMARK   11  A    between atoms: _27  and  _29
REMARK   12  A    between atoms: _29  and  _30
REMARK   13  A    between atoms: _29  and  _32
REMARK   14  A    between atoms: _32  and  _33
REMARK   15  A    between atoms: _36  and  _38
REMARK   16  A    between atoms: _38  and  _39
REMARK   17  A    between atoms: _38  and  _41
REMARK   18  A    between atoms: _41  and  _42
REMARK   19  A    between atoms: _45  and  _47
REMARK   20  A    between atoms: _47  and  _48
REMARK   21  A    between atoms: _47  and  _50
REMARK   22  A    between atoms: _50  and  _51
REMARK   23  A    between atoms: _54  and  _56
REMARK   24  A    between atoms: _56  and  _57
REMARK   25  A    between atoms: _59  and  _61
REMARK   26  A    between atoms: _61  and  _62
REMARK   27  A    between atoms: _65  and  _67
REMARK   28  A    between atoms: _67  and  _68
REMARK   29  A    between atoms: _67  and  _70
REMARK   30  A    between atoms: _70  and  _71
REMARK   31  A    between atoms: _74  and  _76
REMARK   32  A    between atoms: _76  and  _77
REMARK   33  A    between atoms: _76  and  _79
REMARK   34  A    between atoms: _79  and  _80
REMARK   35  A    between atoms: _83  and  _85
REMARK   36  A    between atoms: _85  and  _86
REMARK   37  A    between atoms: _85  and  _88
REMARK   38  A    between atoms: _88  and  _89
REMARK   39  A    between atoms: _92  and  _94
REMARK   40  A    between atoms: _94  and  _95
REMARK   41  A    between atoms: _94  and  _97
REMARK   42  A    between atoms: _100  and  _102
REMARK   43  A    between atoms: _102  and  _103
REMARK   44  A    between atoms: _102  and  _105
REMARK   45  A    between atoms: _105  and  _106
REMARK   46  A    between atoms: _106  and  _107
REMARK   47  A    between atoms: _109  and  _111
REMARK   48  A    between atoms: _111  and  _112
REMARK   49  A    between atoms: _111  and  _114
REMARK   50  A    between atoms: _114  and  _115
REMARK   51  A    between atoms: _118  and  _120
REMARK   52  A    between atoms: _120  and  _121
REMARK   53  A    between atoms: _123  and  _125
REMARK   54  A    between atoms: _125  and  _126
REMARK   55  A    between atoms: _128  and  _130
REMARK   56  A    between atoms: _130  and  _131
REMARK   57  A    between atoms: _130  and  _133
REMARK   58  A    between atoms: _133  and  _134
REMARK   59  A    between atoms: _137  and  _139
REMARK   60  A    between atoms: _139  and  _140
REMARK   61  A    between atoms: _142  and  _144
REMARK   62  A    between atoms: _144  and  _145
REMARK   63  A    between atoms: _147  and  _149
REMARK   64  A    between atoms: _149  and  _150
REMARK   65  A    between atoms: _149  and  _152
REMARK   66  A    between atoms: _152  and  _153
REMARK   67  A    between atoms: _159  and  _161
REMARK   68  A    between atoms: _161  and  _162
REMARK   69  A    between atoms: _161  and  _164
REMARK   70  A    between atoms: _164  and  _165
REMARK   71  A    between atoms: _169  and  _170
REMARK   72  A    between atoms: _175  and  _177
REMARK   73  A    between atoms: _177  and  _178
REMARK   74  A    between atoms: _177  and  _180
REMARK   75  A    between atoms: _183  and  _185
REMARK   76  A    between atoms: _185  and  _186
REMARK   77  A    between atoms: _185  and  _188
REMARK   78  A    between atoms: _188  and  _189
REMARK   79  A    between atoms: _194  and  _196
REMARK   80  A    between atoms: _196  and  _197
REMARK   81  A    between atoms: _196  and  _199
REMARK   82  A    between atoms: _199  and  _200
REMARK   83  A    between atoms: _203  and  _205
REMARK   84  A    between atoms: _205  and  _206
REMARK   85  A    between atoms: _205  and  _208
REMARK   86  A    between atoms: _208  and  _209
REMARK   87  A    between atoms: _212  and  _214
REMARK   88  A    between atoms: _214  and  _215
REMARK   89  A    between atoms: _217  and  _219
REMARK   90  A    between atoms: _219  and  _220
REMARK   91  A    between atoms: _219  and  _222
REMARK   92  A    between atoms: _222  and  _223
REMARK   93  A    between atoms: _223  and  _224
REMARK   94  A    between atoms: _224  and  _225
REMARK   95  A    between atoms: _234  and  _236
REMARK   96  A    between atoms: _236  and  _237
REMARK   97  A    between atoms: _236  and  _239
REMARK   98  A    between atoms: _239  and  _240
REMARK   99  A    between atoms: _240  and  _241
REMARK  100  A    between atoms: _241  and  _242
REMARK  101  A    between atoms: _251  and  _253
REMARK  102  A    between atoms: _253  and  _254
REMARK  103  A    between atoms: _253  and  _256
REMARK  104  A    between atoms: _256  and  _257
REMARK  105  A    between atoms: _260  and  _262
REMARK  106  A    between atoms: _262  and  _263
REMARK  107  A    between atoms: _262  and  _265
REMARK  108  A    between atoms: _265  and  _266
REMARK  109  A    between atoms: _269  and  _271
REMARK  110  A    between atoms: _271  and  _272
REMARK  111  A    between atoms: _271  and  _274
REMARK  112  A    between atoms: _274  and  _275
REMARK  113  A    between atoms: _278  and  _280
REMARK  114  A    between atoms: _280  and  _281
REMARK  115  A    between atoms: _280  and  _283
REMARK  116  A    between atoms: _283  and  _284
REMARK  117  A    between atoms: _287  and  _289
REMARK  118  A    between atoms: _289  and  _290
REMARK  119  A    between atoms: _292  and  _294
REMARK  120  A    between atoms: _294  and  _295
REMARK  121  A    between atoms: _298  and  _300
REMARK  122  A    between atoms: _300  and  _301
REMARK  123  A    between atoms: _300  and  _303
REMARK  124  A    between atoms: _303  and  _304
REMARK  125  A    between atoms: _307  and  _309
REMARK  126  A    between atoms: _309  and  _310
REMARK  127  A    between atoms: _309  and  _312
REMARK  128  A    between atoms: _312  and  _313
REMARK  129  A    between atoms: _316  and  _318
REMARK  130  A    between atoms: _318  and  _319
REMARK  131  A    between atoms: _318  and  _321
REMARK  132  A    between atoms: _321  and  _322
REMARK  133  A    between atoms: _325  and  _327
REMARK  134  A    between atoms: _327  and  _328
REMARK  135  A    between atoms: _327  and  _330
REMARK  136  A    between atoms: _333  and  _335
REMARK  137  A    between atoms: _335  and  _336
REMARK  138  A    between atoms: _335  and  _338
REMARK  139  A    between atoms: _338  and  _339
REMARK  140  A    between atoms: _339  and  _340
REMARK  141  A    between atoms: _340  and  _341
REMARK  142  A    between atoms: _341  and  _342
REMARK  143  A    between atoms: _346  and  _348
REMARK  144  A    between atoms: _348  and  _349
REMARK  145  A    between atoms: _348  and  _351
REMARK  146  A    between atoms: _351  and  _352
REMARK  147  A    between atoms: _352  and  _353
REMARK  148  A    between atoms: _355  and  _357
REMARK  149  A    between atoms: _357  and  _358
REMARK  150  A    between atoms: _357  and  _360
REMARK  151  A    between atoms: _360  and  _361
REMARK  152  A    between atoms: _364  and  _366
REMARK  153  A    between atoms: _366  and  _367
REMARK  154  A    between atoms: _369  and  _371
REMARK  155  A    between atoms: _371  and  _372
REMARK  156  A    between atoms: _374  and  _376
REMARK  157  A    between atoms: _376  and  _377
REMARK  158  A    between atoms: _376  and  _379
REMARK  159  A    between atoms: _379  and  _380
REMARK  160  A    between atoms: _383  and  _385
REMARK  161  A    between atoms: _385  and  _386
REMARK  162  A    between atoms: _388  and  _390
REMARK  163  A    between atoms: _390  and  _391
REMARK  164  A    between atoms: _393  and  _395
REMARK  165  A    between atoms: _395  and  _396
REMARK  166  A    between atoms: _395  and  _398
REMARK  167  A    between atoms: _398  and  _399
REMARK  168  A    between atoms: _405  and  _407
REMARK  169  A    between atoms: _407  and  _408
REMARK  170  A    between atoms: _407  and  _410
REMARK  171  A    between atoms: _410  and  _411
REMARK  172  A    between atoms: _414  and  _416
REMARK  173  A    between atoms: _416  and  _417
REMARK  174  A    between atoms: _416  and  _419
REMARK  175  A    between atoms: _422  and  _424
REMARK  176  A    between atoms: _424  and  _425
REMARK  177  A    between atoms: _424  and  _427
REMARK  178  A    between atoms: _427  and  _428
REMARK  179  A    between atoms: _431  and  _433
REMARK  180  A    between atoms: _433  and  _434
REMARK  181  A    between atoms: _433  and  _436
REMARK  182  A    between atoms: _436  and  _437
REMARK  183  A    between atoms: _441  and  _442
REMARK  184  A    between atoms: _447  and  _449
REMARK  185  A    between atoms: _449  and  _450
REMARK  186  A    between atoms: _449  and  _452
REMARK  187  A    between atoms: _455  and  _457
REMARK  188  A    between atoms: _457  and  _458
REMARK  189  A    between atoms: _457  and  _460
REMARK  190  A    between atoms: _460  and  _461
REMARK  191  A    between atoms: _466  and  _468
REMARK  192  A    between atoms: _468  and  _469
REMARK  193  A    between atoms: _468  and  _471
REMARK  194  A    between atoms: _471  and  _472
REMARK  195  A    between atoms: _475  and  _477
REMARK  196  A    between atoms: _477  and  _478
REMARK  197  A    between atoms: _477  and  _480
REMARK  198  A    between atoms: _480  and  _481
REMARK  199  A    between atoms: _484  and  _486
REMARK  200  A    between atoms: _486  and  _487
REMARK  201  A    between atoms: _489  and  _491
REMARK  202  A    between atoms: _491  and  _492
REMARK  203  A    between atoms: _491  and  _494
REMARK  204  A    between atoms: _494  and  _495
REMARK  205  A    between atoms: _495  and  _496
REMARK  206  A    between atoms: _496  and  _497
REMARK  207  A    between atoms: _506  and  _508
REMARK  208  A    between atoms: _508  and  _509
REMARK  209  A    between atoms: _508  and  _511
REMARK  210  A    between atoms: _511  and  _512
REMARK                            x       y       z     vdW  Elec       q    Type
REMARK                         _______ _______ _______ _____ _____    ______ ____
ROOT
ATOM      1  O   HOH     1      14.464  34.671  26.273  0.00  0.00    +0.000 OA
ENDROOT
TORSDOF 0
REMARK  Name = ../refined-set-2016/2i0a/2i0a_pocket.pdb
REMARK  210 active torsions:
REMARK  status: ('A' for Active; 'I' for Inactive)
REMARK    1  A    between atoms: _1  and  _3
REMARK    2  A    between atoms: _3  and  _4
REMARK    3  A    between atoms: _3  and  _6
REMARK    4  A    between atoms: _6  and  _7
REMARK    5  A    between atoms: _7  and  _8
REMARK    6  A    between atoms: _8  and  _9
REMARK    7  A    between atoms: _18  and  _20
REMARK    8  A    between atoms: _20  and  _21
REMARK    9  A    between atoms: _20  and  _23
REMARK   10  A    between atoms: _23  and  _24
REMARK   11  A    between atoms: _27  and  _29
REMARK   12  A    between atoms: _29  and  _30
REMARK   13  A    between atoms: _29  and  _32
REMARK   14  A    between atoms: _32  and  _33
REMARK   15  A    between atoms: _36  and  _38
REMARK   16  A    between atoms: _38  and  _39
REMARK   17  A    between atoms: _38  and  _41
REMARK   18  A    between atoms: _41  and  _42
REMARK   19  A    between atoms: _45  and  _47
REMARK   20  A    between atoms: _47  and  _48
REMARK   21  A    between atoms: _47  and  _50
REMARK   22  A    between atoms: _50  and  _51
REMARK   23  A    between atoms: _54  and  _56
REMARK   24  A    between atoms: _56  and  _57
REMARK   25  A    between atoms: _59  and  _61
REMARK   26  A    between atoms: _61  and  _62
REMARK   27  A    between atoms: _65  and  _67
REMARK   28  A    between atoms: _67  and  _68
REMARK   29  A    between atoms: _67  and  _70
REMARK   30  A    between atoms: _70  and  _71
REMARK   31  A    between atoms: _74  and  _76
REMARK   32  A    between atoms: _76  and  _77
REMARK   33  A    between atoms: _76  and  _79
REMARK   34  A    between atoms: _79  and  _80
REMARK   35  A    between atoms: _83  and  _85
REMARK   36  A    between atoms: _85  and  _86
REMARK   37  A    between atoms: _85  and  _88
REMARK   38  A    between atoms: _88  and  _89
REMARK   39  A    between atoms: _92  and  _94
REMARK   40  A    between atoms: _94  and  _95
REMARK   41  A    between atoms: _94  and  _97
REMARK   42  A    between atoms: _100  and  _102
REMARK   43  A    between atoms: _102  and  _103
REMARK   44  A    between atoms: _102  and  _105
REMARK   45  A    between atoms: _105  and  _106
REMARK   46  A    between atoms: _106  and  _107
REMARK   47  A    between atoms: _109  and  _111
REMARK   48  A    between atoms: _111  and  _112
REMARK   49  A    between atoms: _111  and  _114
REMARK   50  A    between atoms: _114  and  _115
REMARK   51  A    between atoms: _118  and  _120
REMARK   52  A    between atoms: _120  and  _121
REMARK   53  A    between atoms: _123  and  _125
REMARK   54  A    between atoms: _125  and  _126
REMARK   55  A    between atoms: _128  and  _130
REMARK   56  A    between atoms: _130  and  _131
REMARK   57  A    between atoms: _130  and  _133
REMARK   58  A    between atoms: _133  and  _134
REMARK   59  A    between atoms: _137  and  _139
REMARK   60  A    between atoms: _139  and  _140
REMARK   61  A    between atoms: _142  and  _144
REMARK   62  A    between atoms: _144  and  _145
REMARK   63  A    between atoms: _147  and  _149
REMARK   64  A    between atoms: _149  and  _150
REMARK   65  A    between atoms: _149  and  _152
REMARK   66  A    between atoms: _152  and  _153
REMARK   67  A    between atoms: _159  and  _161
REMARK   68  A    between atoms: _161  and  _162
REMARK   69  A    between atoms: _161  and  _164
REMARK   70  A    between atoms: _164  and  _165
REMARK   71  A    between atoms: _169  and  _170
REMARK   72  A    between atoms: _175  and  _177
REMARK   73  A    between atoms: _177  and  _178
REMARK   74  A    between atoms: _177  and  _180
REMARK   75  A    between atoms: _183  and  _185
REMARK   76  A    between atoms: _185  and  _186
REMARK   77  A    between atoms: _185  and  _188
REMARK   78  A    between atoms: _188  and  _189
REMARK   79  A    between atoms: _194  and  _196
REMARK   80  A    between atoms: _196  and  _197
REMARK   81  A    between atoms: _196  and  _199
REMARK   82  A    between atoms: _199  and  _200
REMARK   83  A    between atoms: _203  and  _205
REMARK   84  A    between atoms: _205  and  _206
REMARK   85  A    between atoms: _205  and  _208
REMARK   86  A    between atoms: _208  and  _209
REMARK   87  A    between atoms: _212  and  _214
REMARK   88  A    between atoms: _214  and  _215
REMARK   89  A    between atoms: _217  and  _219
REMARK   90  A    between atoms: _219  and  _220
REMARK   91  A    between atoms: _219  and  _222
REMARK   92  A    between atoms: _222  and  _223
REMARK   93  A    between atoms: _223  and  _224
REMARK   94  A    between atoms: _224  and  _225
REMARK   95  A    between atoms: _234  and  _236
REMARK   96  A    between atoms: _236  and  _237
REMARK   97  A    between atoms: _236  and  _239
REMARK   98  A    between atoms: _239  and  _240
REMARK   99  A    between atoms: _240  and  _241
REMARK  100  A    between atoms: _241  and  _242
REMARK  101  A    between atoms: _251  and  _253
REMARK  102  A    between atoms: _253  and  _254
REMARK  103  A    between atoms: _253  and  _256
REMARK  104  A    between atoms: _256  and  _257
REMARK  105  A    between atoms: _260  and  _262
REMARK  106  A    between atoms: _262  and  _263
REMARK  107  A    between atoms: _262  and  _265
REMARK  108  A    between atoms: _265  and  _266
REMARK  109  A    between atoms: _269  and  _271
REMARK  110  A    between atoms: _271  and  _272
REMARK  111  A    between atoms: _271  and  _274
REMARK  112  A    between atoms: _274  and  _275
REMARK  113  A    between atoms: _278  and  _280
REMARK  114  A    between atoms: _280  and  _281
REMARK  115  A    between atoms: _280  and  _283
REMARK  116  A    between atoms: _283  and  _284
REMARK  117  A    between atoms: _287  and  _289
REMARK  118  A    between atoms: _289  and  _290
REMARK  119  A    between atoms: _292  and  _294
REMARK  120  A    between atoms: _294  and  _295
REMARK  121  A    between atoms: _298  and  _300
REMARK  122  A    between atoms: _300  and  _301
REMARK  123  A    between atoms: _300  and  _303
REMARK  124  A    between atoms: _303  and  _304
REMARK  125  A    between atoms: _307  and  _309
REMARK  126  A    between atoms: _309  and  _310
REMARK  127  A    between atoms: _309  and  _312
REMARK  128  A    between atoms: _312  and  _313
REMARK  129  A    between atoms: _316  and  _318
REMARK  130  A    between atoms: _318  and  _319
REMARK  131  A    between atoms: _318  and  _321
REMARK  132  A    between atoms: _321  and  _322
REMARK  133  A    between atoms: _325  and  _327
REMARK  134  A    between atoms: _327  and  _328
REMARK  135  A    between atoms: _327  and  _330
REMARK  136  A    between atoms: _333  and  _335
REMARK  137  A    between atoms: _335  and  _336
REMARK  138  A    between atoms: _335  and  _338
REMARK  139  A    between atoms: _338  and  _339
REMARK  140  A    between atoms: _339  and  _340
REMARK  141  A    between atoms: _340  and  _341
REMARK  142  A    between atoms: _341  and  _342
REMARK  143  A    between atoms: _346  and  _348
REMARK  144  A    between atoms: _348  and  _349
REMARK  145  A    between atoms: _348  and  _351
REMARK  146  A    between atoms: _351  and  _352
REMARK  147  A    between atoms: _352  and  _353
REMARK  148  A    between atoms: _355  and  _357
REMARK  149  A    between atoms: _357  and  _358
REMARK  150  A    between atoms: _357  and  _360
REMARK  151  A    between atoms: _360  and  _361
REMARK  152  A    between atoms: _364  and  _366
REMARK  153  A    between atoms: _366  and  _367
REMARK  154  A    between atoms: _369  and  _371
REMARK  155  A    between atoms: _371  and  _372
REMARK  156  A    between atoms: _374  and  _376
REMARK  157  A    between atoms: _376  and  _377
REMARK  158  A    between atoms: _376  and  _379
REMARK  159  A    between atoms: _379  and  _380
REMARK  160  A    between atoms: _383  and  _385
REMARK  161  A    between atoms: _385  and  _386
REMARK  162  A    between atoms: _388  and  _390
REMARK  163  A    between atoms: _390  and  _391
REMARK  164  A    between atoms: _393  and  _395
REMARK  165  A    between atoms: _395  and  _396
REMARK  166  A    between atoms: _395  and  _398
REMARK  167  A    between atoms: _398  and  _399
REMARK  168  A    between atoms: _405  and  _407
REMARK  169  A    between atoms: _407  and  _408
REMARK  170  A    between atoms: _407  and  _410
REMARK  171  A    between atoms: _410  and  _411
REMARK  172  A    between atoms: _414  and  _416
REMARK  173  A    between atoms: _416  and  _417
REMARK  174  A    between atoms: _416  and  _419
REMARK  175  A    between atoms: _422  and  _424
REMARK  176  A    between atoms: _424  and  _425
REMARK  177  A    between atoms: _424  and  _427
REMARK  178  A    between atoms: _427  and  _428
REMARK  179  A    between atoms: _431  and  _433
REMARK  180  A    between atoms: _433  and  _434
REMARK  181  A    between atoms: _433  and  _436
REMARK  182  A    between atoms: _436  and  _437
REMARK  183  A    between atoms: _441  and  _442
REMARK  184  A    between atoms: _447  and  _449
REMARK  185  A    between atoms: _449  and  _450
REMARK  186  A    between atoms: _449  and  _452
REMARK  187  A    between atoms: _455  and  _457
REMARK  188  A    between atoms: _457  and  _458
REMARK  189  A    between atoms: _457  and  _460
REMARK  190  A    between atoms: _460  and  _461
REMARK  191  A    between atoms: _466  and  _468
REMARK  192  A    between atoms: _468  and  _469
REMARK  193  A    between atoms: _468  and  _471
REMARK  194  A    between atoms: _471  and  _472
REMARK  195  A    between atoms: _475  and  _477
REMARK  196  A    between atoms: _477  and  _478
REMARK  197  A    between atoms: _477  and  _480
REMARK  198  A    between atoms: _480  and  _481
REMARK  199  A    between atoms: _484  and  _486
REMARK  200  A    between atoms: _486  and  _487
REMARK  201  A    between atoms: _489  and  _491
REMARK  202  A    between atoms: _491  and  _492
REMARK  203  A    between atoms: _491  and  _494
REMARK  204  A    between atoms: _494  and  _495
REMARK  205  A    between atoms: _495  and  _496
REMARK  206  A    between atoms: _496  and  _497
REMARK  207  A    between atoms: _506  and  _508
REMARK  208  A    between atoms: _508  and  _509
REMARK  209  A    between atoms: _508  and  _511
REMARK  210  A    between atoms: _511  and  _512
REMARK                            x       y       z     vdW  Elec       q    Type
REMARK                         _______ _______ _______ _____ _____    ______ ____
ROOT
ATOM      1  O   HOH     1      17.487  23.272   7.946  0.00  0.00    +0.000 OA
ENDROOT
TORSDOF 0
REMARK  Name = ../refined-set-2016/2i0a/2i0a_pocket.pdb
REMARK  210 active torsions:
REMARK  status: ('A' for Active; 'I' for Inactive)
REMARK    1  A    between atoms: _1  and  _3
REMARK    2  A    between atoms: _3  and  _4
REMARK    3  A    between atoms: _3  and  _6
REMARK    4  A    between atoms: _6  and  _7
REMARK    5  A    between atoms: _7  and  _8
REMARK    6  A    between atoms: _8  and  _9
REMARK    7  A    between atoms: _18  and  _20
REMARK    8  A    between atoms: _20  and  _21
REMARK    9  A    between atoms: _20  and  _23
REMARK   10  A    between atoms: _23  and  _24
REMARK   11  A    between atoms: _27  and  _29
REMARK   12  A    between atoms: _29  and  _30
REMARK   13  A    between atoms: _29  and  _32
REMARK   14  A    between atoms: _32  and  _33
REMARK   15  A    between atoms: _36  and  _38
REMARK   16  A    between atoms: _38  and  _39
REMARK   17  A    between atoms: _38  and  _41
REMARK   18  A    between atoms: _41  and  _42
REMARK   19  A    between atoms: _45  and  _47
REMARK   20  A    between atoms: _47  and  _48
REMARK   21  A    between atoms: _47  and  _50
REMARK   22  A    between atoms: _50  and  _51
REMARK   23  A    between atoms: _54  and  _56
REMARK   24  A    between atoms: _56  and  _57
REMARK   25  A    between atoms: _59  and  _61
REMARK   26  A    between atoms: _61  and  _62
REMARK   27  A    between atoms: _65  and  _67
REMARK   28  A    between atoms: _67  and  _68
REMARK   29  A    between atoms: _67  and  _70
REMARK   30  A    between atoms: _70  and  _71
REMARK   31  A    between atoms: _74  and  _76
REMARK   32  A    between atoms: _76  and  _77
REMARK   33  A    between atoms: _76  and  _79
REMARK   34  A    between atoms: _79  and  _80
REMARK   35  A    between atoms: _83  and  _85
REMARK   36  A    between atoms: _85  and  _86
REMARK   37  A    between atoms: _85  and  _88
REMARK   38  A    between atoms: _88  and  _89
REMARK   39  A    between atoms: _92  and  _94
REMARK   40  A    between atoms: _94  and  _95
REMARK   41  A    between atoms: _94  and  _97
REMARK   42  A    between atoms: _100  and  _102
REMARK   43  A    between atoms: _102  and  _103
REMARK   44  A    between atoms: _102  and  _105
REMARK   45  A    between atoms: _105  and  _106
REMARK   46  A    between atoms: _106  and  _107
REMARK   47  A    between atoms: _109  and  _111
REMARK   48  A    between atoms: _111  and  _112
REMARK   49  A    between atoms: _111  and  _114
REMARK   50  A    between atoms: _114  and  _115
REMARK   51  A    between atoms: _118  and  _120
REMARK   52  A    between atoms: _120  and  _121
REMARK   53  A    between atoms: _123  and  _125
REMARK   54  A    between atoms: _125  and  _126
REMARK   55  A    between atoms: _128  and  _130
REMARK   56  A    between atoms: _130  and  _131
REMARK   57  A    between atoms: _130  and  _133
REMARK   58  A    between atoms: _133  and  _134
REMARK   59  A    between atoms: _137  and  _139
REMARK   60  A    between atoms: _139  and  _140
REMARK   61  A    between atoms: _142  and  _144
REMARK   62  A    between atoms: _144  and  _145
REMARK   63  A    between atoms: _147  and  _149
REMARK   64  A    between atoms: _149  and  _150
REMARK   65  A    between atoms: _149  and  _152
REMARK   66  A    between atoms: _152  and  _153
REMARK   67  A    between atoms: _159  and  _161
REMARK   68  A    between atoms: _161  and  _162
REMARK   69  A    between atoms: _161  and  _164
REMARK   70  A    between atoms: _164  and  _165
REMARK   71  A    between atoms: _169  and  _170
REMARK   72  A    between atoms: _175  and  _177
REMARK   73  A    between atoms: _177  and  _178
REMARK   74  A    between atoms: _177  and  _180
REMARK   75  A    between atoms: _183  and  _185
REMARK   76  A    between atoms: _185  and  _186
REMARK   77  A    between atoms: _185  and  _188
REMARK   78  A    between atoms: _188  and  _189
REMARK   79  A    between atoms: _194  and  _196
REMARK   80  A    between atoms: _196  and  _197
REMARK   81  A    between atoms: _196  and  _199
REMARK   82  A    between atoms: _199  and  _200
REMARK   83  A    between atoms: _203  and  _205
REMARK   84  A    between atoms: _205  and  _206
REMARK   85  A    between atoms: _205  and  _208
REMARK   86  A    between atoms: _208  and  _209
REMARK   87  A    between atoms: _212  and  _214
REMARK   88  A    between atoms: _214  and  _215
REMARK   89  A    between atoms: _217  and  _219
REMARK   90  A    between atoms: _219  and  _220
REMARK   91  A    between atoms: _219  and  _222
REMARK   92  A    between atoms: _222  and  _223
REMARK   93  A    between atoms: _223  and  _224
REMARK   94  A    between atoms: _224  and  _225
REMARK   95  A    between atoms: _234  and  _236
REMARK   96  A    between atoms: _236  and  _237
REMARK   97  A    between atoms: _236  and  _239
REMARK   98  A    between atoms: _239  and  _240
REMARK   99  A    between atoms: _240  and  _241
REMARK  100  A    between atoms: _241  and  _242
REMARK  101  A    between atoms: _251  and  _253
REMARK  102  A    between atoms: _253  and  _254
REMARK  103  A    between atoms: _253  and  _256
REMARK  104  A    between atoms: _256  and  _257
REMARK  105  A    between atoms: _260  and  _262
REMARK  106  A    between atoms: _262  and  _263
REMARK  107  A    between atoms: _262  and  _265
REMARK  108  A    between atoms: _265  and  _266
REMARK  109  A    between atoms: _269  and  _271
REMARK  110  A    between atoms: _271  and  _272
REMARK  111  A    between atoms: _271  and  _274
REMARK  112  A    between atoms: _274  and  _275
REMARK  113  A    between atoms: _278  and  _280
REMARK  114  A    between atoms: _280  and  _281
REMARK  115  A    between atoms: _280  and  _283
REMARK  116  A    between atoms: _283  and  _284
REMARK  117  A    between atoms: _287  and  _289
REMARK  118  A    between atoms: _289  and  _290
REMARK  119  A    between atoms: _292  and  _294
REMARK  120  A    between atoms: _294  and  _295
REMARK  121  A    between atoms: _298  and  _300
REMARK  122  A    between atoms: _300  and  _301
REMARK  123  A    between atoms: _300  and  _303
REMARK  124  A    between atoms: _303  and  _304
REMARK  125  A    between atoms: _307  and  _309
REMARK  126  A    between atoms: _309  and  _310
REMARK  127  A    between atoms: _309  and  _312
REMARK  128  A    between atoms: _312  and  _313
REMARK  129  A    between atoms: _316  and  _318
REMARK  130  A    between atoms: _318  and  _319
REMARK  131  A    between atoms: _318  and  _321
REMARK  132  A    between atoms: _321  and  _322
REMARK  133  A    between atoms: _325  and  _327
REMARK  134  A    between atoms: _327  and  _328
REMARK  135  A    between atoms: _327  and  _330
REMARK  136  A    between atoms: _333  and  _335
REMARK  137  A    between atoms: _335  and  _336
REMARK  138  A    between atoms: _335  and  _338
REMARK  139  A    between atoms: _338  and  _339
REMARK  140  A    between atoms: _339  and  _340
REMARK  141  A    between atoms: _340  and  _341
REMARK  142  A    between atoms: _341  and  _342
REMARK  143  A    between atoms: _346  and  _348
REMARK  144  A    between atoms: _348  and  _349
REMARK  145  A    between atoms: _348  and  _351
REMARK  146  A    between atoms: _351  and  _352
REMARK  147  A    between atoms: _352  and  _353
REMARK  148  A    between atoms: _355  and  _357
REMARK  149  A    between atoms: _357  and  _358
REMARK  150  A    between atoms: _357  and  _360
REMARK  151  A    between atoms: _360  and  _361
REMARK  152  A    between atoms: _364  and  _366
REMARK  153  A    between atoms: _366  and  _367
REMARK  154  A    between atoms: _369  and  _371
REMARK  155  A    between atoms: _371  and  _372
REMARK  156  A    between atoms: _374  and  _376
REMARK  157  A    between atoms: _376  and  _377
REMARK  158  A    between atoms: _376  and  _379
REMARK  159  A    between atoms: _379  and  _380
REMARK  160  A    between atoms: _383  and  _385
REMARK  161  A    between atoms: _385  and  _386
REMARK  162  A    between atoms: _388  and  _390
REMARK  163  A    between atoms: _390  and  _391
REMARK  164  A    between atoms: _393  and  _395
REMARK  165  A    between atoms: _395  and  _396
REMARK  166  A    between atoms: _395  and  _398
REMARK  167  A    between atoms: _398  and  _399
REMARK  168  A    between atoms: _405  and  _407
REMARK  169  A    between atoms: _407  and  _408
REMARK  170  A    between atoms: _407  and  _410
REMARK  171  A    between atoms: _410  and  _411
REMARK  172  A    between atoms: _414  and  _416
REMARK  173  A    between atoms: _416  and  _417
REMARK  174  A    between atoms: _416  and  _419
REMARK  175  A    between atoms: _422  and  _424
REMARK  176  A    between atoms: _424  and  _425
REMARK  177  A    between atoms: _424  and  _427
REMARK  178  A    between atoms: _427  and  _428
REMARK  179  A    between atoms: _431  and  _433
REMARK  180  A    between atoms: _433  and  _434
REMARK  181  A    between atoms: _433  and  _436
REMARK  182  A    between atoms: _436  and  _437
REMARK  183  A    between atoms: _441  and  _442
REMARK  184  A    between atoms: _447  and  _449
REMARK  185  A    between atoms: _449  and  _450
REMARK  186  A    between atoms: _449  and  _452
REMARK  187  A    between atoms: _455  and  _457
REMARK  188  A    between atoms: _457  and  _458
REMARK  189  A    between atoms: _457  and  _460
REMARK  190  A    between atoms: _460  and  _461
REMARK  191  A    between atoms: _466  and  _468
REMARK  192  A    between atoms: _468  and  _469
REMARK  193  A    between atoms: _468  and  _471
REMARK  194  A    between atoms: _471  and  _472
REMARK  195  A    between atoms: _475  and  _477
REMARK  196  A    between atoms: _477  and  _478
REMARK  197  A    between atoms: _477  and  _480
REMARK  198  A    between atoms: _480  and  _481
REMARK  199  A    between atoms: _484  and  _486
REMARK  200  A    between atoms: _486  and  _487
REMARK  201  A    between atoms: _489  and  _491
REMARK  202  A    between atoms: _491  and  _492
REMARK  203  A    between atoms: _491  and  _494
REMARK  204  A    between atoms: _494  and  _495
REMARK  205  A    between atoms: _495  and  _496
REMARK  206  A    between atoms: _496  and  _497
REMARK  207  A    between atoms: _506  and  _508
REMARK  208  A    between atoms: _508  and  _509
REMARK  209  A    between atoms: _508  and  _511
REMARK  210  A    between atoms: _511  and  _512
REMARK                            x       y       z     vdW  Elec       q    Type
REMARK                         _______ _______ _______ _____ _____    ______ ____
ROOT
ATOM      1  O   HOH     1      19.937  36.271  18.405  0.00  0.00    +0.000 OA
ENDROOT
TORSDOF 0
