REMARK  Name = ../refined-set-2016/3cd0/3cd0_pocket.pdb
REMARK  247 active torsions:
REMARK  status: ('A' for Active; 'I' for Inactive)
REMARK    1  A    between atoms: _1  and  _3
REMARK    2  A    between atoms: _3  and  _4
REMARK    3  A    between atoms: _3  and  _6
REMARK    4  A    between atoms: _6  and  _7
REMARK    5  A    between atoms: _10  and  _12
REMARK    6  A    between atoms: _12  and  _13
REMARK    7  A    between atoms: _12  and  _15
REMARK    8  A    between atoms: _15  and  _16
REMARK    9  A    between atoms: _16  and  _17
REMARK   10  A    between atoms: _20  and  _22
REMARK   11  A    between atoms: _22  and  _23
REMARK   12  A    between atoms: _25  and  _27
REMARK   13  A    between atoms: _27  and  _28
REMARK   14  A    between atoms: _27  and  _30
REMARK   15  A    between atoms: _32  and  _34
REMARK   16  A    between atoms: _34  and  _35
REMARK   17  A    between atoms: _34  and  _37
REMARK   18  A    between atoms: _37  and  _38
REMARK   19  A    between atoms: _41  and  _43
REMARK   20  A    between atoms: _43  and  _44
REMARK   21  A    between atoms: _43  and  _46
REMARK   22  A    between atoms: _49  and  _51
REMARK   23  A    between atoms: _51  and  _52
REMARK   24  A    between atoms: _55  and  _57
REMARK   25  A    between atoms: _57  and  _58
REMARK   26  A    between atoms: _57  and  _60
REMARK   27  A    between atoms: _60  and  _61
REMARK   28  A    between atoms: _63  and  _65
REMARK   29  A    between atoms: _65  and  _66
REMARK   30  A    between atoms: _65  and  _68
REMARK   31  A    between atoms: _68  and  _69
REMARK   32  A    between atoms: _72  and  _74
REMARK   33  A    between atoms: _74  and  _75
REMARK   34  A    between atoms: _74  and  _77
REMARK   35  A    between atoms: _77  and  _78
REMARK   36  A    between atoms: _83  and  _85
REMARK   37  A    between atoms: _85  and  _86
REMARK   38  A    between atoms: _85  and  _88
REMARK   39  A    between atoms: _88  and  _89
REMARK   40  A    between atoms: _89  and  _90
REMARK   41  A    between atoms: _90  and  _91
REMARK   42  A    between atoms: _100  and  _102
REMARK   43  A    between atoms: _102  and  _103
REMARK   44  A    between atoms: _105  and  _107
REMARK   45  A    between atoms: _107  and  _108
REMARK   46  A    between atoms: _107  and  _110
REMARK   47  A    between atoms: _113  and  _115
REMARK   48  A    between atoms: _115  and  _116
REMARK   49  A    between atoms: _115  and  _118
REMARK   50  A    between atoms: _118  and  _119
REMARK   51  A    between atoms: _122  and  _124
REMARK   52  A    between atoms: _124  and  _125
REMARK   53  A    between atoms: _124  and  _127
REMARK   54  A    between atoms: _127  and  _128
REMARK   55  A    between atoms: _128  and  _129
REMARK   56  A    between atoms: _129  and  _130
REMARK   57  A    between atoms: _130  and  _131
REMARK   58  A    between atoms: _135  and  _137
REMARK   59  A    between atoms: _137  and  _138
REMARK   60  A    between atoms: _137  and  _140
REMARK   61  A    between atoms: _140  and  _141
REMARK   62  A    between atoms: _141  and  _142
REMARK   63  A    between atoms: _142  and  _143
REMARK   64  A    between atoms: _143  and  _144
REMARK   65  A    between atoms: _148  and  _150
REMARK   66  A    between atoms: _150  and  _151
REMARK   67  A    between atoms: _150  and  _153
REMARK   68  A    between atoms: _153  and  _154
REMARK   69  A    between atoms: _159  and  _161
REMARK   70  A    between atoms: _161  and  _162
REMARK   71  A    between atoms: _161  and  _164
REMARK   72  A    between atoms: _164  and  _165
REMARK   73  A    between atoms: _170  and  _172
REMARK   74  A    between atoms: _172  and  _173
REMARK   75  A    between atoms: _176  and  _178
REMARK   76  A    between atoms: _178  and  _179
REMARK   77  A    between atoms: _178  and  _181
REMARK   78  A    between atoms: _181  and  _182
REMARK   79  A    between atoms: _187  and  _189
REMARK   80  A    between atoms: _189  and  _190
REMARK   81  A    between atoms: _193  and  _195
REMARK   82  A    between atoms: _195  and  _196
REMARK   83  A    between atoms: _199  and  _201
REMARK   84  A    between atoms: _201  and  _202
REMARK   85  A    between atoms: _201  and  _204
REMARK   86  A    between atoms: _204  and  _205
REMARK   87  A    between atoms: _210  and  _212
REMARK   88  A    between atoms: _212  and  _213
REMARK   89  A    between atoms: _212  and  _215
REMARK   90  A    between atoms: _215  and  _216
REMARK   91  A    between atoms: _219  and  _221
REMARK   92  A    between atoms: _221  and  _222
REMARK   93  A    between atoms: _224  and  _226
REMARK   94  A    between atoms: _226  and  _227
REMARK   95  A    between atoms: _226  and  _229
REMARK   96  A    between atoms: _229  and  _230
REMARK   97  A    between atoms: _230  and  _231
REMARK   98  A    between atoms: _234  and  _236
REMARK   99  A    between atoms: _236  and  _237
REMARK  100  A    between atoms: _236  and  _239
REMARK  101  A    between atoms: _239  and  _240
REMARK  102  A    between atoms: _243  and  _245
REMARK  103  A    between atoms: _245  and  _246
REMARK  104  A    between atoms: _245  and  _248
REMARK  105  A    between atoms: _248  and  _249
REMARK  106  A    between atoms: _251  and  _253
REMARK  107  A    between atoms: _253  and  _254
REMARK  108  A    between atoms: _253  and  _256
REMARK  109  A    between atoms: _256  and  _257
REMARK  110  A    between atoms: _260  and  _262
REMARK  111  A    between atoms: _262  and  _263
REMARK  112  A    between atoms: _262  and  _265
REMARK  113  A    between atoms: _265  and  _266
REMARK  114  A    between atoms: _266  and  _267
REMARK  115  A    between atoms: _269  and  _271
REMARK  116  A    between atoms: _271  and  _272
REMARK  117  A    between atoms: _275  and  _277
REMARK  118  A    between atoms: _277  and  _278
REMARK  119  A    between atoms: _281  and  _283
REMARK  120  A    between atoms: _283  and  _284
REMARK  121  A    between atoms: _283  and  _286
REMARK  122  A    between atoms: _286  and  _287
REMARK  123  A    between atoms: _290  and  _292
REMARK  124  A    between atoms: _292  and  _293
REMARK  125  A    between atoms: _292  and  _295
REMARK  126  A    between atoms: _295  and  _296
REMARK  127  A    between atoms: _301  and  _303
REMARK  128  A    between atoms: _303  and  _304
REMARK  129  A    between atoms: _303  and  _306
REMARK  130  A    between atoms: _306  and  _307
REMARK  131  A    between atoms: _307  and  _308
REMARK  132  A    between atoms: _311  and  _313
REMARK  133  A    between atoms: _313  and  _314
REMARK  134  A    between atoms: _313  and  _316
REMARK  135  A    between atoms: _316  and  _317
REMARK  136  A    between atoms: _322  and  _324
REMARK  137  A    between atoms: _324  and  _325
REMARK  138  A    between atoms: _324  and  _327
REMARK  139  A    between atoms: _327  and  _328
REMARK  140  A    between atoms: _331  and  _333
REMARK  141  A    between atoms: _333  and  _334
REMARK  142  A    between atoms: _333  and  _336
REMARK  143  A    between atoms: _336  and  _337
REMARK  144  A    between atoms: _337  and  _338
REMARK  145  A    between atoms: _338  and  _339
REMARK  146  A    between atoms: _348  and  _350
REMARK  147  A    between atoms: _350  and  _351
REMARK  148  A    between atoms: _353  and  _355
REMARK  149  A    between atoms: _355  and  _356
REMARK  150  A    between atoms: _355  and  _358
REMARK  151  A    between atoms: _358  and  _359
REMARK  152  A    between atoms: _359  and  _360
REMARK  153  A    between atoms: _362  and  _364
REMARK  154  A    between atoms: _364  and  _365
REMARK  155  A    between atoms: _364  and  _367
REMARK  156  A    between atoms: _367  and  _368
REMARK  157  A    between atoms: _368  and  _369
REMARK  158  A    between atoms: _371  and  _373
REMARK  159  A    between atoms: _373  and  _374
REMARK  160  A    between atoms: _373  and  _376
REMARK  161  A    between atoms: _376  and  _377
REMARK  162  A    between atoms: _382  and  _384
REMARK  163  A    between atoms: _384  and  _385
REMARK  164  A    between atoms: _384  and  _387
REMARK  165  A    between atoms: _387  and  _388
REMARK  166  A    between atoms: _391  and  _393
REMARK  167  A    between atoms: _393  and  _394
REMARK  168  A    between atoms: _393  and  _396
REMARK  169  A    between atoms: _396  and  _397
REMARK  170  A    between atoms: _399  and  _401
REMARK  171  A    between atoms: _401  and  _402
REMARK  172  A    between atoms: _401  and  _404
REMARK  173  A    between atoms: _404  and  _405
REMARK  174  A    between atoms: _405  and  _406
REMARK  175  A    between atoms: _406  and  _407
REMARK  176  A    between atoms: _407  and  _408
REMARK  177  A    between atoms: _412  and  _414
REMARK  178  A    between atoms: _414  and  _415
REMARK  179  A    between atoms: _414  and  _417
REMARK  180  A    between atoms: _417  and  _418
REMARK  181  A    between atoms: _421  and  _423
REMARK  182  A    between atoms: _423  and  _424
REMARK  183  A    between atoms: _423  and  _426
REMARK  184  A    between atoms: _426  and  _427
REMARK  185  A    between atoms: _427  and  _428
REMARK  186  A    between atoms: _431  and  _433
REMARK  187  A    between atoms: _433  and  _434
REMARK  188  A    between atoms: _437  and  _439
REMARK  189  A    between atoms: _439  and  _440
REMARK  190  A    between atoms: _439  and  _442
REMARK  191  A    between atoms: _445  and  _447
REMARK  192  A    between atoms: _447  and  _448
REMARK  193  A    between atoms: _447  and  _450
REMARK  194  A    between atoms: _450  and  _451
REMARK  195  A    between atoms: _453  and  _455
REMARK  196  A    between atoms: _455  and  _456
REMARK  197  A    between atoms: _458  and  _460
REMARK  198  A    between atoms: _460  and  _461
REMARK  199  A    between atoms: _460  and  _463
REMARK  200  A    between atoms: _463  and  _464
REMARK  201  A    between atoms: _469  and  _471
REMARK  202  A    between atoms: _471  and  _472
REMARK  203  A    between atoms: _471  and  _474
REMARK  204  A    between atoms: _474  and  _475
REMARK  205  A    between atoms: _480  and  _481
REMARK  206  A    between atoms: _483  and  _485
REMARK  207  A    between atoms: _485  and  _486
REMARK  208  A    between atoms: _485  and  _488
REMARK  209  A    between atoms: _490  and  _492
REMARK  210  A    between atoms: _492  and  _493
REMARK  211  A    between atoms: _492  and  _495
REMARK  212  A    between atoms: _495  and  _496
REMARK  213  A    between atoms: _499  and  _501
REMARK  214  A    between atoms: _501  and  _502
REMARK  215  A    between atoms: _501  and  _504
REMARK  216  A    between atoms: _504  and  _505
REMARK  217  A    between atoms: _508  and  _510
REMARK  218  A    between atoms: _510  and  _511
REMARK  219  A    between atoms: _510  and  _513
REMARK  220  A    between atoms: _513  and  _514
REMARK  221  A    between atoms: _514  and  _515
REMARK  222  A    between atoms: _515  and  _516
REMARK  223  A    between atoms: _516  and  _517
REMARK  224  A    between atoms: _521  and  _523
REMARK  225  A    between atoms: _523  and  _524
REMARK  226  A    between atoms: _523  and  _526
REMARK  227  A    between atoms: _526  and  _527
REMARK  228  A    between atoms: _527  and  _528
REMARK  229  A    between atoms: _528  and  _529
REMARK  230  A    between atoms: _529  and  _530
REMARK  231  A    between atoms: _534  and  _536
REMARK  232  A    between atoms: _536  and  _537
REMARK  233  A    between atoms: _536  and  _539
REMARK  234  A    between atoms: _539  and  _540
REMARK  235  A    between atoms: _540  and  _541
REMARK  236  A    between atoms: _541  and  _542
REMARK  237  A    between atoms: _551  and  _553
REMARK  238  A    between atoms: _553  and  _554
REMARK  239  A    between atoms: _553  and  _556
REMARK  240  A    between atoms: _556  and  _557
REMARK  241  A    between atoms: _560  and  _562
REMARK  242  A    between atoms: _562  and  _563
REMARK  243  A    between atoms: _566  and  _568
REMARK  244  A    between atoms: _568  and  _569
REMARK  245  A    between atoms: _568  and  _571
REMARK  246  A    between atoms: _571  and  _572
REMARK  247  A    between atoms: _572  and  _573
REMARK                            x       y       z     vdW  Elec       q    Type
REMARK                         _______ _______ _______ _____ _____    ______ ____
ROOT
ATOM      1  CA  THR A   1     -10.719  -4.562  43.051  0.00  0.00    +0.160 C 
ENDROOT
BRANCH   1   2
ATOM      2  N   THR A   1     -11.329  -5.864  42.839  0.00  0.00    -0.237 NA
ATOM      3  H   THR A   1     -11.560  -6.464  43.656  0.00  0.00    +0.142 HD
ENDBRANCH   1   2
BRANCH   1   4
ATOM      4  C   THR A   1      -9.903  -4.477  44.337  0.00  0.00    +0.227 C 
ATOM      5  O   THR A   1     -10.020  -5.330  45.221  0.00  0.00    -0.287 OA
ENDBRANCH   1   4
BRANCH   1   6
ATOM      6  CB  THR A   1     -11.829  -3.490  43.025  0.00  0.00    +0.134 C 
ATOM      7  CG2 THR A   1     -12.759  -3.602  44.254  0.00  0.00    +0.034 C 
BRANCH   6   8
ATOM      8  OG1 THR A   1     -11.260  -2.178  43.111  0.00  0.00    -0.383 OA
ATOM      9  HG1 THR A   1     -11.984  -1.504  43.093  0.00  0.00    +0.210 HD
ENDBRANCH   6   8
ENDBRANCH   1   6
TORSDOF 4
REMARK  Name = ../refined-set-2016/3cd0/3cd0_pocket.pdb
REMARK  247 active torsions:
REMARK  status: ('A' for Active; 'I' for Inactive)
REMARK    1  A    between atoms: _1  and  _3
REMARK    2  A    between atoms: _3  and  _4
REMARK    3  A    between atoms: _3  and  _6
REMARK    4  A    between atoms: _6  and  _7
REMARK    5  A    between atoms: _10  and  _12
REMARK    6  A    between atoms: _12  and  _13
REMARK    7  A    between atoms: _12  and  _15
REMARK    8  A    between atoms: _15  and  _16
REMARK    9  A    between atoms: _16  and  _17
REMARK   10  A    between atoms: _20  and  _22
REMARK   11  A    between atoms: _22  and  _23
REMARK   12  A    between atoms: _25  and  _27
REMARK   13  A    between atoms: _27  and  _28
REMARK   14  A    between atoms: _27  and  _30
REMARK   15  A    between atoms: _32  and  _34
REMARK   16  A    between atoms: _34  and  _35
REMARK   17  A    between atoms: _34  and  _37
REMARK   18  A    between atoms: _37  and  _38
REMARK   19  A    between atoms: _41  and  _43
REMARK   20  A    between atoms: _43  and  _44
REMARK   21  A    between atoms: _43  and  _46
REMARK   22  A    between atoms: _49  and  _51
REMARK   23  A    between atoms: _51  and  _52
REMARK   24  A    between atoms: _55  and  _57
REMARK   25  A    between atoms: _57  and  _58
REMARK   26  A    between atoms: _57  and  _60
REMARK   27  A    between atoms: _60  and  _61
REMARK   28  A    between atoms: _63  and  _65
REMARK   29  A    between atoms: _65  and  _66
REMARK   30  A    between atoms: _65  and  _68
REMARK   31  A    between atoms: _68  and  _69
REMARK   32  A    between atoms: _72  and  _74
REMARK   33  A    between atoms: _74  and  _75
REMARK   34  A    between atoms: _74  and  _77
REMARK   35  A    between atoms: _77  and  _78
REMARK   36  A    between atoms: _83  and  _85
REMARK   37  A    between atoms: _85  and  _86
REMARK   38  A    between atoms: _85  and  _88
REMARK   39  A    between atoms: _88  and  _89
REMARK   40  A    between atoms: _89  and  _90
REMARK   41  A    between atoms: _90  and  _91
REMARK   42  A    between atoms: _100  and  _102
REMARK   43  A    between atoms: _102  and  _103
REMARK   44  A    between atoms: _105  and  _107
REMARK   45  A    between atoms: _107  and  _108
REMARK   46  A    between atoms: _107  and  _110
REMARK   47  A    between atoms: _113  and  _115
REMARK   48  A    between atoms: _115  and  _116
REMARK   49  A    between atoms: _115  and  _118
REMARK   50  A    between atoms: _118  and  _119
REMARK   51  A    between atoms: _122  and  _124
REMARK   52  A    between atoms: _124  and  _125
REMARK   53  A    between atoms: _124  and  _127
REMARK   54  A    between atoms: _127  and  _128
REMARK   55  A    between atoms: _128  and  _129
REMARK   56  A    between atoms: _129  and  _130
REMARK   57  A    between atoms: _130  and  _131
REMARK   58  A    between atoms: _135  and  _137
REMARK   59  A    between atoms: _137  and  _138
REMARK   60  A    between atoms: _137  and  _140
REMARK   61  A    between atoms: _140  and  _141
REMARK   62  A    between atoms: _141  and  _142
REMARK   63  A    between atoms: _142  and  _143
REMARK   64  A    between atoms: _143  and  _144
REMARK   65  A    between atoms: _148  and  _150
REMARK   66  A    between atoms: _150  and  _151
REMARK   67  A    between atoms: _150  and  _153
REMARK   68  A    between atoms: _153  and  _154
REMARK   69  A    between atoms: _159  and  _161
REMARK   70  A    between atoms: _161  and  _162
REMARK   71  A    between atoms: _161  and  _164
REMARK   72  A    between atoms: _164  and  _165
REMARK   73  A    between atoms: _170  and  _172
REMARK   74  A    between atoms: _172  and  _173
REMARK   75  A    between atoms: _176  and  _178
REMARK   76  A    between atoms: _178  and  _179
REMARK   77  A    between atoms: _178  and  _181
REMARK   78  A    between atoms: _181  and  _182
REMARK   79  A    between atoms: _187  and  _189
REMARK   80  A    between atoms: _189  and  _190
REMARK   81  A    between atoms: _193  and  _195
REMARK   82  A    between atoms: _195  and  _196
REMARK   83  A    between atoms: _199  and  _201
REMARK   84  A    between atoms: _201  and  _202
REMARK   85  A    between atoms: _201  and  _204
REMARK   86  A    between atoms: _204  and  _205
REMARK   87  A    between atoms: _210  and  _212
REMARK   88  A    between atoms: _212  and  _213
REMARK   89  A    between atoms: _212  and  _215
REMARK   90  A    between atoms: _215  and  _216
REMARK   91  A    between atoms: _219  and  _221
REMARK   92  A    between atoms: _221  and  _222
REMARK   93  A    between atoms: _224  and  _226
REMARK   94  A    between atoms: _226  and  _227
REMARK   95  A    between atoms: _226  and  _229
REMARK   96  A    between atoms: _229  and  _230
REMARK   97  A    between atoms: _230  and  _231
REMARK   98  A    between atoms: _234  and  _236
REMARK   99  A    between atoms: _236  and  _237
REMARK  100  A    between atoms: _236  and  _239
REMARK  101  A    between atoms: _239  and  _240
REMARK  102  A    between atoms: _243  and  _245
REMARK  103  A    between atoms: _245  and  _246
REMARK  104  A    between atoms: _245  and  _248
REMARK  105  A    between atoms: _248  and  _249
REMARK  106  A    between atoms: _251  and  _253
REMARK  107  A    between atoms: _253  and  _254
REMARK  108  A    between atoms: _253  and  _256
REMARK  109  A    between atoms: _256  and  _257
REMARK  110  A    between atoms: _260  and  _262
REMARK  111  A    between atoms: _262  and  _263
REMARK  112  A    between atoms: _262  and  _265
REMARK  113  A    between atoms: _265  and  _266
REMARK  114  A    between atoms: _266  and  _267
REMARK  115  A    between atoms: _269  and  _271
REMARK  116  A    between atoms: _271  and  _272
REMARK  117  A    between atoms: _275  and  _277
REMARK  118  A    between atoms: _277  and  _278
REMARK  119  A    between atoms: _281  and  _283
REMARK  120  A    between atoms: _283  and  _284
REMARK  121  A    between atoms: _283  and  _286
REMARK  122  A    between atoms: _286  and  _287
REMARK  123  A    between atoms: _290  and  _292
REMARK  124  A    between atoms: _292  and  _293
REMARK  125  A    between atoms: _292  and  _295
REMARK  126  A    between atoms: _295  and  _296
REMARK  127  A    between atoms: _301  and  _303
REMARK  128  A    between atoms: _303  and  _304
REMARK  129  A    between atoms: _303  and  _306
REMARK  130  A    between atoms: _306  and  _307
REMARK  131  A    between atoms: _307  and  _308
REMARK  132  A    between atoms: _311  and  _313
REMARK  133  A    between atoms: _313  and  _314
REMARK  134  A    between atoms: _313  and  _316
REMARK  135  A    between atoms: _316  and  _317
REMARK  136  A    between atoms: _322  and  _324
REMARK  137  A    between atoms: _324  and  _325
REMARK  138  A    between atoms: _324  and  _327
REMARK  139  A    between atoms: _327  and  _328
REMARK  140  A    between atoms: _331  and  _333
REMARK  141  A    between atoms: _333  and  _334
REMARK  142  A    between atoms: _333  and  _336
REMARK  143  A    between atoms: _336  and  _337
REMARK  144  A    between atoms: _337  and  _338
REMARK  145  A    between atoms: _338  and  _339
REMARK  146  A    between atoms: _348  and  _350
REMARK  147  A    between atoms: _350  and  _351
REMARK  148  A    between atoms: _353  and  _355
REMARK  149  A    between atoms: _355  and  _356
REMARK  150  A    between atoms: _355  and  _358
REMARK  151  A    between atoms: _358  and  _359
REMARK  152  A    between atoms: _359  and  _360
REMARK  153  A    between atoms: _362  and  _364
REMARK  154  A    between atoms: _364  and  _365
REMARK  155  A    between atoms: _364  and  _367
REMARK  156  A    between atoms: _367  and  _368
REMARK  157  A    between atoms: _368  and  _369
REMARK  158  A    between atoms: _371  and  _373
REMARK  159  A    between atoms: _373  and  _374
REMARK  160  A    between atoms: _373  and  _376
REMARK  161  A    between atoms: _376  and  _377
REMARK  162  A    between atoms: _382  and  _384
REMARK  163  A    between atoms: _384  and  _385
REMARK  164  A    between atoms: _384  and  _387
REMARK  165  A    between atoms: _387  and  _388
REMARK  166  A    between atoms: _391  and  _393
REMARK  167  A    between atoms: _393  and  _394
REMARK  168  A    between atoms: _393  and  _396
REMARK  169  A    between atoms: _396  and  _397
REMARK  170  A    between atoms: _399  and  _401
REMARK  171  A    between atoms: _401  and  _402
REMARK  172  A    between atoms: _401  and  _404
REMARK  173  A    between atoms: _404  and  _405
REMARK  174  A    between atoms: _405  and  _406
REMARK  175  A    between atoms: _406  and  _407
REMARK  176  A    between atoms: _407  and  _408
REMARK  177  A    between atoms: _412  and  _414
REMARK  178  A    between atoms: _414  and  _415
REMARK  179  A    between atoms: _414  and  _417
REMARK  180  A    between atoms: _417  and  _418
REMARK  181  A    between atoms: _421  and  _423
REMARK  182  A    between atoms: _423  and  _424
REMARK  183  A    between atoms: _423  and  _426
REMARK  184  A    between atoms: _426  and  _427
REMARK  185  A    between atoms: _427  and  _428
REMARK  186  A    between atoms: _431  and  _433
REMARK  187  A    between atoms: _433  and  _434
REMARK  188  A    between atoms: _437  and  _439
REMARK  189  A    between atoms: _439  and  _440
REMARK  190  A    between atoms: _439  and  _442
REMARK  191  A    between atoms: _445  and  _447
REMARK  192  A    between atoms: _447  and  _448
REMARK  193  A    between atoms: _447  and  _450
REMARK  194  A    between atoms: _450  and  _451
REMARK  195  A    between atoms: _453  and  _455
REMARK  196  A    between atoms: _455  and  _456
REMARK  197  A    between atoms: _458  and  _460
REMARK  198  A    between atoms: _460  and  _461
REMARK  199  A    between atoms: _460  and  _463
REMARK  200  A    between atoms: _463  and  _464
REMARK  201  A    between atoms: _469  and  _471
REMARK  202  A    between atoms: _471  and  _472
REMARK  203  A    between atoms: _471  and  _474
REMARK  204  A    between atoms: _474  and  _475
REMARK  205  A    between atoms: _480  and  _481
REMARK  206  A    between atoms: _483  and  _485
REMARK  207  A    between atoms: _485  and  _486
REMARK  208  A    between atoms: _485  and  _488
REMARK  209  A    between atoms: _490  and  _492
REMARK  210  A    between atoms: _492  and  _493
REMARK  211  A    between atoms: _492  and  _495
REMARK  212  A    between atoms: _495  and  _496
REMARK  213  A    between atoms: _499  and  _501
REMARK  214  A    between atoms: _501  and  _502
REMARK  215  A    between atoms: _501  and  _504
REMARK  216  A    between atoms: _504  and  _505
REMARK  217  A    between atoms: _508  and  _510
REMARK  218  A    between atoms: _510  and  _511
REMARK  219  A    between atoms: _510  and  _513
REMARK  220  A    between atoms: _513  and  _514
REMARK  221  A    between atoms: _514  and  _515
REMARK  222  A    between atoms: _515  and  _516
REMARK  223  A    between atoms: _516  and  _517
REMARK  224  A    between atoms: _521  and  _523
REMARK  225  A    between atoms: _523  and  _524
REMARK  226  A    between atoms: _523  and  _526
REMARK  227  A    between atoms: _526  and  _527
REMARK  228  A    between atoms: _527  and  _528
REMARK  229  A    between atoms: _528  and  _529
REMARK  230  A    between atoms: _529  and  _530
REMARK  231  A    between atoms: _534  and  _536
REMARK  232  A    between atoms: _536  and  _537
REMARK  233  A    between atoms: _536  and  _539
REMARK  234  A    between atoms: _539  and  _540
REMARK  235  A    between atoms: _540  and  _541
REMARK  236  A    between atoms: _541  and  _542
REMARK  237  A    between atoms: _551  and  _553
REMARK  238  A    between atoms: _553  and  _554
REMARK  239  A    between atoms: _553  and  _556
REMARK  240  A    between atoms: _556  and  _557
REMARK  241  A    between atoms: _560  and  _562
REMARK  242  A    between atoms: _562  and  _563
REMARK  243  A    between atoms: _566  and  _568
REMARK  244  A    between atoms: _568  and  _569
REMARK  245  A    between atoms: _568  and  _571
REMARK  246  A    between atoms: _571  and  _572
REMARK  247  A    between atoms: _572  and  _573
REMARK                            x       y       z     vdW  Elec       q    Type
REMARK                         _______ _______ _______ _____ _____    ______ ____
ROOT
ATOM      1  CA  SER A   7     -20.620   2.322  46.711  0.00  0.00    +0.178 C 
ENDROOT
BRANCH   1   4
ATOM      2  C   ALA A   6     -20.740   0.303  48.066  0.00  0.00    +0.241 C 
ATOM      3  O   ALA A   6     -21.959   0.400  48.179  0.00  0.00    -0.273 OA
ATOM      4  N   SER A   7     -20.009   1.185  47.389  0.00  0.00    -0.295 N 
ATOM      5  H   SER A   7     -18.978   1.060  47.342  0.00  0.00    +0.150 HD
BRANCH   2   6
ATOM      6  CA  ALA A   6     -19.988  -0.868  48.706  0.00  0.00    +0.149 C 
ATOM      7  CB  ALA A   6     -19.443  -0.460  50.074  0.00  0.00    +0.031 C 
BRANCH   6   9
ATOM      8  C   VAL A   5     -19.134  -1.935  46.670  0.00  0.00    +0.241 C 
ATOM      9  N   ALA A   6     -18.900  -1.343  47.842  0.00  0.00    -0.297 N 
ATOM     10  H   ALA A   6     -17.916  -1.214  48.154  0.00  0.00    +0.150 HD
ATOM     11  O   VAL A   5     -20.272  -2.163  46.250  0.00  0.00    -0.273 OA
BRANCH   8  12
ATOM     12  CA  VAL A   5     -17.909  -2.343  45.836  0.00  0.00    +0.149 C 
BRANCH  12  14
ATOM     13  C   LEU A   4     -16.995  -0.139  45.291  0.00  0.00    +0.241 C 
ATOM     14  N   VAL A   5     -16.847  -1.329  45.872  0.00  0.00    -0.297 N 
ATOM     15  H   VAL A   5     -15.956  -1.545  46.364  0.00  0.00    +0.150 HD
ATOM     16  O   LEU A   4     -18.025   0.194  44.710  0.00  0.00    -0.273 OA
BRANCH  13  17
ATOM     17  CA  LEU A   4     -15.813   0.826  45.364  0.00  0.00    +0.149 C 
BRANCH  17  20
ATOM     18  C   CYS A   3     -15.989   1.463  47.696  0.00  0.00    +0.242 C 
ATOM     19  O   CYS A   3     -17.128   1.881  47.511  0.00  0.00    -0.273 OA
ATOM     20  N   LEU A   4     -15.264   0.933  46.716  0.00  0.00    -0.297 N 
ATOM     21  H   LEU A   4     -14.301   0.592  46.911  0.00  0.00    +0.150 HD
BRANCH  18  22
ATOM     22  CA  CYS A   3     -15.382   1.562  49.090  0.00  0.00    +0.160 C 
BRANCH  22  24
ATOM     23  C   GLY A   2     -12.906   1.531  48.902  0.00  0.00    +0.243 C 
ATOM     24  N   CYS A   3     -14.053   0.966  49.273  0.00  0.00    -0.296 N 
ATOM     25  H   CYS A   3     -14.004   0.032  49.727  0.00  0.00    +0.150 HD
ATOM     26  O   GLY A   2     -12.826   2.566  48.243  0.00  0.00    -0.273 OA
BRANCH  23  27
ATOM     27  CA  GLY A   2     -11.653   0.777  49.293  0.00  0.00    +0.176 C 
BRANCH  27  29
ATOM     28  C   GLU A   1     -11.026   0.225  47.014  0.00  0.00    +0.238 C 
ATOM     29  N   GLY A   2     -10.709   0.746  48.196  0.00  0.00    -0.296 N 
ATOM     30  H   GLY A   2      -9.757   1.142  48.336  0.00  0.00    +0.150 HD
ATOM     31  O   GLU A   1     -12.114  -0.331  46.793  0.00  0.00    -0.274 OA
BRANCH  28  32
ATOM     32  CA  GLU A   1      -9.950   0.351  45.917  0.00  0.00    +0.145 C 
BRANCH  32  33
ATOM     33  N   GLU A   1      -9.517  -0.967  45.460  0.00  0.00    -0.238 NA
ATOM     34  H   GLU A   1      -9.913  -1.353  44.579  0.00  0.00    +0.142 HD
ENDBRANCH  32  33
BRANCH  32  35
ATOM     35  CB  GLU A   1     -10.477   1.186  44.745  0.00  0.00    +0.038 C 
BRANCH  35  36
ATOM     36  CG  GLU A   1     -10.947   2.583  45.136  0.00  0.00    +0.116 C 
BRANCH  36  37
ATOM     37  CD  GLU A   1     -11.015   3.544  43.960  0.00  0.00    +0.365 C 
ATOM     38  OE2 GLU A   1     -10.900   4.776  44.185  0.00  0.00    -0.246 OA
ATOM     39  OE1 GLU A   1     -11.184   3.073  42.812  0.00  0.00    -0.246 OA
ENDBRANCH  36  37
ENDBRANCH  35  36
ENDBRANCH  32  35
ENDBRANCH  28  32
ENDBRANCH  27  29
ENDBRANCH  23  27
ENDBRANCH  22  24
BRANCH  22  40
ATOM     40  CB  CYS A   3     -15.406   3.031  49.543  0.00  0.00    +0.098 C 
ATOM     41  SG  CYS A   3     -14.940   3.267  51.269  0.00  0.00    -0.080 S 
ENDBRANCH  22  40
ENDBRANCH  18  22
ENDBRANCH  17  20
BRANCH  17  42
ATOM     42  CB  LEU A   4     -14.741   0.401  44.357  0.00  0.00    +0.029 C 
BRANCH  42  43
ATOM     43  CG  LEU A   4     -15.235   0.218  42.915  0.00  0.00    +0.002 C 
ATOM     44  CD2 LEU A   4     -15.868   1.506  42.376  0.00  0.00    +0.000 C 
ATOM     45  CD1 LEU A   4     -14.111  -0.256  42.011  0.00  0.00    +0.000 C 
ENDBRANCH  42  43
ENDBRANCH  17  42
ENDBRANCH  13  17
ENDBRANCH  12  14
BRANCH  12  46
ATOM     46  CB  VAL A   5     -17.423  -3.736  46.311  0.00  0.00    +0.027 C 
ATOM     47  CG2 VAL A   5     -18.565  -4.744  46.237  0.00  0.00    +0.002 C 
ATOM     48  CG1 VAL A   5     -16.244  -4.223  45.479  0.00  0.00    +0.002 C 
ENDBRANCH  12  46
ENDBRANCH   8  12
ENDBRANCH   6   9
ENDBRANCH   2   6
ENDBRANCH   1   4
BRANCH   1  49
ATOM     49  C   SER A   7     -21.503   1.865  45.552  0.00  0.00    +0.243 C 
ATOM     50  O   SER A   7     -22.631   2.328  45.410  0.00  0.00    -0.273 OA
ATOM     51  N   THR A   8     -20.991   0.952  44.729  0.00  0.00    -0.295 N 
ATOM     52  H   THR A   8     -20.019   0.618  44.885  0.00  0.00    +0.150 HD
BRANCH  51  53
ATOM     53  CA  THR A   8     -21.762   0.408  43.612  0.00  0.00    +0.176 C 
BRANCH  53  54
ATOM     54  C   THR A   8     -23.017  -0.288  44.124  0.00  0.00    +0.243 C 
ATOM     55  N   ASN A   9     -22.856  -1.010  45.232  0.00  0.00    -0.297 N 
ATOM     56  H   ASN A   9     -21.905  -1.063  45.650  0.00  0.00    +0.150 HD
ATOM     57  O   THR A   8     -24.085  -0.182  43.521  0.00  0.00    -0.273 OA
BRANCH  55  58
ATOM     58  CA  ASN A   9     -23.942  -1.732  45.893  0.00  0.00    +0.158 C 
BRANCH  58  59
ATOM     59  C   ASN A   9     -25.057  -0.783  46.349  0.00  0.00    +0.241 C 
ATOM     60  N   ARG A  10     -24.693   0.430  46.757  0.00  0.00    -0.297 N 
ATOM     61  H   ARG A  10     -23.682   0.663  46.827  0.00  0.00    +0.150 HD
ATOM     62  O   ASN A   9     -26.233  -1.141  46.316  0.00  0.00    -0.273 OA
BRANCH  60  63
ATOM     63  CA  ARG A  10     -25.691   1.443  47.110  0.00  0.00    +0.149 C 
BRANCH  63  64
ATOM     64  C   ARG A  10     -26.458   1.912  45.870  0.00  0.00    +0.241 C 
ATOM     65  O   ARG A  10     -27.680   2.091  45.918  0.00  0.00    -0.273 OA
ATOM     66  N   GLY A  11     -25.742   2.109  44.767  0.00  0.00    -0.296 N 
ATOM     67  H   GLY A  11     -24.706   2.032  44.813  0.00  0.00    +0.150 HD
BRANCH  66  68
ATOM     68  CA  GLY A  11     -26.373   2.428  43.503  0.00  0.00    +0.163 C 
BRANCH  68  69
ATOM     69  C   GLY A  11     -27.373   1.368  43.062  0.00  0.00    +0.229 C 
ATOM     70  O   GLY A  11     -28.398   1.692  42.463  0.00  0.00    -0.286 OA
ENDBRANCH  68  69
ENDBRANCH  66  68
ENDBRANCH  63  64
BRANCH  63  71
ATOM     71  CB  ARG A  10     -25.050   2.639  47.819  0.00  0.00    +0.033 C 
BRANCH  71  72
ATOM     72  CG  ARG A  10     -26.075   3.625  48.357  0.00  0.00    +0.045 C 
BRANCH  72  73
ATOM     73  CD  ARG A  10     -25.486   4.776  49.146  0.00  0.00    +0.174 C 
BRANCH  73  74
ATOM     74  NE  ARG A  10     -24.845   5.760  48.278  0.00  0.00    -0.265 N 
ATOM     75  CZ  ARG A  10     -24.436   6.961  48.672  0.00  0.00    +0.342 C 
ATOM     76  NH2 ARG A  10     -24.601   7.354  49.936  0.00  0.00    -0.292 N 
ATOM     77 HH21 ARG A  10     -25.053   6.718  50.623  0.00  0.00    +0.255 HD
ATOM     78 HH22 ARG A  10     -24.277   8.296  50.234  0.00  0.00    +0.255 HD
ATOM     79  NH1 ARG A  10     -23.857   7.773  47.794  0.00  0.00    -0.292 N 
ATOM     80 HH11 ARG A  10     -23.533   8.715  48.092  0.00  0.00    +0.255 HD
ATOM     81 HH12 ARG A  10     -23.728   7.466  46.809  0.00  0.00    +0.255 HD
ATOM     82  HE  ARG A  10     -24.698   5.502  47.281  0.00  0.00    +0.259 HD
ENDBRANCH  73  74
ENDBRANCH  72  73
ENDBRANCH  71  72
ENDBRANCH  63  71
ENDBRANCH  60  63
ENDBRANCH  58  59
BRANCH  58  83
ATOM     83  CB  ASN A   9     -23.379  -2.526  47.086  0.00  0.00    +0.114 C 
BRANCH  83  84
ATOM     84  CG  ASN A   9     -24.320  -3.609  47.578  0.00  0.00    +0.222 C 
ATOM     85  OD1 ASN A   9     -24.748  -3.602  48.732  0.00  0.00    -0.275 OA
ATOM     86  ND2 ASN A   9     -24.631  -4.548  46.718  0.00  0.00    -0.329 N 
ATOM     87 HD21 ASN A   9     -25.262  -5.325  47.002  0.00  0.00    +0.145 HD
ATOM     88 HD22 ASN A   9     -24.247  -4.516  45.752  0.00  0.00    +0.145 HD
ENDBRANCH  83  84
ENDBRANCH  58  83
ENDBRANCH  55  58
ENDBRANCH  53  54
BRANCH  53  89
ATOM     89  CB  THR A   8     -20.905  -0.602  42.791  0.00  0.00    +0.137 C 
ATOM     90  CG2 THR A   8     -21.637  -1.059  41.557  0.00  0.00    +0.034 C 
BRANCH  89  91
ATOM     91  OG1 THR A   8     -19.740   0.044  42.272  0.00  0.00    -0.382 OA
ATOM     92  HG1 THR A   8     -19.197   0.395  43.022  0.00  0.00    +0.210 HD
ENDBRANCH  89  91
ENDBRANCH  53  89
ENDBRANCH  51  53
ENDBRANCH   1  49
BRANCH   1  93
ATOM     93  CB  SER A   7     -19.560   3.291  46.200  0.00  0.00    +0.166 C 
BRANCH  93  94
ATOM     94  OG  SER A   7     -20.175   4.426  45.620  0.00  0.00    -0.380 OA
ATOM     95  H   SER A   7     -19.477   5.047  45.292  0.00  0.00    +0.211 HD
ENDBRANCH  93  94
ENDBRANCH   1  93
TORSDOF 39
REMARK  Name = ../refined-set-2016/3cd0/3cd0_pocket.pdb
REMARK  247 active torsions:
REMARK  status: ('A' for Active; 'I' for Inactive)
REMARK    1  A    between atoms: _1  and  _3
REMARK    2  A    between atoms: _3  and  _4
REMARK    3  A    between atoms: _3  and  _6
REMARK    4  A    between atoms: _6  and  _7
REMARK    5  A    between atoms: _10  and  _12
REMARK    6  A    between atoms: _12  and  _13
REMARK    7  A    between atoms: _12  and  _15
REMARK    8  A    between atoms: _15  and  _16
REMARK    9  A    between atoms: _16  and  _17
REMARK   10  A    between atoms: _20  and  _22
REMARK   11  A    between atoms: _22  and  _23
REMARK   12  A    between atoms: _25  and  _27
REMARK   13  A    between atoms: _27  and  _28
REMARK   14  A    between atoms: _27  and  _30
REMARK   15  A    between atoms: _32  and  _34
REMARK   16  A    between atoms: _34  and  _35
REMARK   17  A    between atoms: _34  and  _37
REMARK   18  A    between atoms: _37  and  _38
REMARK   19  A    between atoms: _41  and  _43
REMARK   20  A    between atoms: _43  and  _44
REMARK   21  A    between atoms: _43  and  _46
REMARK   22  A    between atoms: _49  and  _51
REMARK   23  A    between atoms: _51  and  _52
REMARK   24  A    between atoms: _55  and  _57
REMARK   25  A    between atoms: _57  and  _58
REMARK   26  A    between atoms: _57  and  _60
REMARK   27  A    between atoms: _60  and  _61
REMARK   28  A    between atoms: _63  and  _65
REMARK   29  A    between atoms: _65  and  _66
REMARK   30  A    between atoms: _65  and  _68
REMARK   31  A    between atoms: _68  and  _69
REMARK   32  A    between atoms: _72  and  _74
REMARK   33  A    between atoms: _74  and  _75
REMARK   34  A    between atoms: _74  and  _77
REMARK   35  A    between atoms: _77  and  _78
REMARK   36  A    between atoms: _83  and  _85
REMARK   37  A    between atoms: _85  and  _86
REMARK   38  A    between atoms: _85  and  _88
REMARK   39  A    between atoms: _88  and  _89
REMARK   40  A    between atoms: _89  and  _90
REMARK   41  A    between atoms: _90  and  _91
REMARK   42  A    between atoms: _100  and  _102
REMARK   43  A    between atoms: _102  and  _103
REMARK   44  A    between atoms: _105  and  _107
REMARK   45  A    between atoms: _107  and  _108
REMARK   46  A    between atoms: _107  and  _110
REMARK   47  A    between atoms: _113  and  _115
REMARK   48  A    between atoms: _115  and  _116
REMARK   49  A    between atoms: _115  and  _118
REMARK   50  A    between atoms: _118  and  _119
REMARK   51  A    between atoms: _122  and  _124
REMARK   52  A    between atoms: _124  and  _125
REMARK   53  A    between atoms: _124  and  _127
REMARK   54  A    between atoms: _127  and  _128
REMARK   55  A    between atoms: _128  and  _129
REMARK   56  A    between atoms: _129  and  _130
REMARK   57  A    between atoms: _130  and  _131
REMARK   58  A    between atoms: _135  and  _137
REMARK   59  A    between atoms: _137  and  _138
REMARK   60  A    between atoms: _137  and  _140
REMARK   61  A    between atoms: _140  and  _141
REMARK   62  A    between atoms: _141  and  _142
REMARK   63  A    between atoms: _142  and  _143
REMARK   64  A    between atoms: _143  and  _144
REMARK   65  A    between atoms: _148  and  _150
REMARK   66  A    between atoms: _150  and  _151
REMARK   67  A    between atoms: _150  and  _153
REMARK   68  A    between atoms: _153  and  _154
REMARK   69  A    between atoms: _159  and  _161
REMARK   70  A    between atoms: _161  and  _162
REMARK   71  A    between atoms: _161  and  _164
REMARK   72  A    between atoms: _164  and  _165
REMARK   73  A    between atoms: _170  and  _172
REMARK   74  A    between atoms: _172  and  _173
REMARK   75  A    between atoms: _176  and  _178
REMARK   76  A    between atoms: _178  and  _179
REMARK   77  A    between atoms: _178  and  _181
REMARK   78  A    between atoms: _181  and  _182
REMARK   79  A    between atoms: _187  and  _189
REMARK   80  A    between atoms: _189  and  _190
REMARK   81  A    between atoms: _193  and  _195
REMARK   82  A    between atoms: _195  and  _196
REMARK   83  A    between atoms: _199  and  _201
REMARK   84  A    between atoms: _201  and  _202
REMARK   85  A    between atoms: _201  and  _204
REMARK   86  A    between atoms: _204  and  _205
REMARK   87  A    between atoms: _210  and  _212
REMARK   88  A    between atoms: _212  and  _213
REMARK   89  A    between atoms: _212  and  _215
REMARK   90  A    between atoms: _215  and  _216
REMARK   91  A    between atoms: _219  and  _221
REMARK   92  A    between atoms: _221  and  _222
REMARK   93  A    between atoms: _224  and  _226
REMARK   94  A    between atoms: _226  and  _227
REMARK   95  A    between atoms: _226  and  _229
REMARK   96  A    between atoms: _229  and  _230
REMARK   97  A    between atoms: _230  and  _231
REMARK   98  A    between atoms: _234  and  _236
REMARK   99  A    between atoms: _236  and  _237
REMARK  100  A    between atoms: _236  and  _239
REMARK  101  A    between atoms: _239  and  _240
REMARK  102  A    between atoms: _243  and  _245
REMARK  103  A    between atoms: _245  and  _246
REMARK  104  A    between atoms: _245  and  _248
REMARK  105  A    between atoms: _248  and  _249
REMARK  106  A    between atoms: _251  and  _253
REMARK  107  A    between atoms: _253  and  _254
REMARK  108  A    between atoms: _253  and  _256
REMARK  109  A    between atoms: _256  and  _257
REMARK  110  A    between atoms: _260  and  _262
REMARK  111  A    between atoms: _262  and  _263
REMARK  112  A    between atoms: _262  and  _265
REMARK  113  A    between atoms: _265  and  _266
REMARK  114  A    between atoms: _266  and  _267
REMARK  115  A    between atoms: _269  and  _271
REMARK  116  A    between atoms: _271  and  _272
REMARK  117  A    between atoms: _275  and  _277
REMARK  118  A    between atoms: _277  and  _278
REMARK  119  A    between atoms: _281  and  _283
REMARK  120  A    between atoms: _283  and  _284
REMARK  121  A    between atoms: _283  and  _286
REMARK  122  A    between atoms: _286  and  _287
REMARK  123  A    between atoms: _290  and  _292
REMARK  124  A    between atoms: _292  and  _293
REMARK  125  A    between atoms: _292  and  _295
REMARK  126  A    between atoms: _295  and  _296
REMARK  127  A    between atoms: _301  and  _303
REMARK  128  A    between atoms: _303  and  _304
REMARK  129  A    between atoms: _303  and  _306
REMARK  130  A    between atoms: _306  and  _307
REMARK  131  A    between atoms: _307  and  _308
REMARK  132  A    between atoms: _311  and  _313
REMARK  133  A    between atoms: _313  and  _314
REMARK  134  A    between atoms: _313  and  _316
REMARK  135  A    between atoms: _316  and  _317
REMARK  136  A    between atoms: _322  and  _324
REMARK  137  A    between atoms: _324  and  _325
REMARK  138  A    between atoms: _324  and  _327
REMARK  139  A    between atoms: _327  and  _328
REMARK  140  A    between atoms: _331  and  _333
REMARK  141  A    between atoms: _333  and  _334
REMARK  142  A    between atoms: _333  and  _336
REMARK  143  A    between atoms: _336  and  _337
REMARK  144  A    between atoms: _337  and  _338
REMARK  145  A    between atoms: _338  and  _339
REMARK  146  A    between atoms: _348  and  _350
REMARK  147  A    between atoms: _350  and  _351
REMARK  148  A    between atoms: _353  and  _355
REMARK  149  A    between atoms: _355  and  _356
REMARK  150  A    between atoms: _355  and  _358
REMARK  151  A    between atoms: _358  and  _359
REMARK  152  A    between atoms: _359  and  _360
REMARK  153  A    between atoms: _362  and  _364
REMARK  154  A    between atoms: _364  and  _365
REMARK  155  A    between atoms: _364  and  _367
REMARK  156  A    between atoms: _367  and  _368
REMARK  157  A    between atoms: _368  and  _369
REMARK  158  A    between atoms: _371  and  _373
REMARK  159  A    between atoms: _373  and  _374
REMARK  160  A    between atoms: _373  and  _376
REMARK  161  A    between atoms: _376  and  _377
REMARK  162  A    between atoms: _382  and  _384
REMARK  163  A    between atoms: _384  and  _385
REMARK  164  A    between atoms: _384  and  _387
REMARK  165  A    between atoms: _387  and  _388
REMARK  166  A    between atoms: _391  and  _393
REMARK  167  A    between atoms: _393  and  _394
REMARK  168  A    between atoms: _393  and  _396
REMARK  169  A    between atoms: _396  and  _397
REMARK  170  A    between atoms: _399  and  _401
REMARK  171  A    between atoms: _401  and  _402
REMARK  172  A    between atoms: _401  and  _404
REMARK  173  A    between atoms: _404  and  _405
REMARK  174  A    between atoms: _405  and  _406
REMARK  175  A    between atoms: _406  and  _407
REMARK  176  A    between atoms: _407  and  _408
REMARK  177  A    between atoms: _412  and  _414
REMARK  178  A    between atoms: _414  and  _415
REMARK  179  A    between atoms: _414  and  _417
REMARK  180  A    between atoms: _417  and  _418
REMARK  181  A    between atoms: _421  and  _423
REMARK  182  A    between atoms: _423  and  _424
REMARK  183  A    between atoms: _423  and  _426
REMARK  184  A    between atoms: _426  and  _427
REMARK  185  A    between atoms: _427  and  _428
REMARK  186  A    between atoms: _431  and  _433
REMARK  187  A    between atoms: _433  and  _434
REMARK  188  A    between atoms: _437  and  _439
REMARK  189  A    between atoms: _439  and  _440
REMARK  190  A    between atoms: _439  and  _442
REMARK  191  A    between atoms: _445  and  _447
REMARK  192  A    between atoms: _447  and  _448
REMARK  193  A    between atoms: _447  and  _450
REMARK  194  A    between atoms: _450  and  _451
REMARK  195  A    between atoms: _453  and  _455
REMARK  196  A    between atoms: _455  and  _456
REMARK  197  A    between atoms: _458  and  _460
REMARK  198  A    between atoms: _460  and  _461
REMARK  199  A    between atoms: _460  and  _463
REMARK  200  A    between atoms: _463  and  _464
REMARK  201  A    between atoms: _469  and  _471
REMARK  202  A    between atoms: _471  and  _472
REMARK  203  A    between atoms: _471  and  _474
REMARK  204  A    between atoms: _474  and  _475
REMARK  205  A    between atoms: _480  and  _481
REMARK  206  A    between atoms: _483  and  _485
REMARK  207  A    between atoms: _485  and  _486
REMARK  208  A    between atoms: _485  and  _488
REMARK  209  A    between atoms: _490  and  _492
REMARK  210  A    between atoms: _492  and  _493
REMARK  211  A    between atoms: _492  and  _495
REMARK  212  A    between atoms: _495  and  _496
REMARK  213  A    between atoms: _499  and  _501
REMARK  214  A    between atoms: _501  and  _502
REMARK  215  A    between atoms: _501  and  _504
REMARK  216  A    between atoms: _504  and  _505
REMARK  217  A    between atoms: _508  and  _510
REMARK  218  A    between atoms: _510  and  _511
REMARK  219  A    between atoms: _510  and  _513
REMARK  220  A    between atoms: _513  and  _514
REMARK  221  A    between atoms: _514  and  _515
REMARK  222  A    between atoms: _515  and  _516
REMARK  223  A    between atoms: _516  and  _517
REMARK  224  A    between atoms: _521  and  _523
REMARK  225  A    between atoms: _523  and  _524
REMARK  226  A    between atoms: _523  and  _526
REMARK  227  A    between atoms: _526  and  _527
REMARK  228  A    between atoms: _527  and  _528
REMARK  229  A    between atoms: _528  and  _529
REMARK  230  A    between atoms: _529  and  _530
REMARK  231  A    between atoms: _534  and  _536
REMARK  232  A    between atoms: _536  and  _537
REMARK  233  A    between atoms: _536  and  _539
REMARK  234  A    between atoms: _539  and  _540
REMARK  235  A    between atoms: _540  and  _541
REMARK  236  A    between atoms: _541  and  _542
REMARK  237  A    between atoms: _551  and  _553
REMARK  238  A    between atoms: _553  and  _554
REMARK  239  A    between atoms: _553  and  _556
REMARK  240  A    between atoms: _556  and  _557
REMARK  241  A    between atoms: _560  and  _562
REMARK  242  A    between atoms: _562  and  _563
REMARK  243  A    between atoms: _566  and  _568
REMARK  244  A    between atoms: _568  and  _569
REMARK  245  A    between atoms: _568  and  _571
REMARK  246  A    between atoms: _571  and  _572
REMARK  247  A    between atoms: _572  and  _573
REMARK                            x       y       z     vdW  Elec       q    Type
REMARK                         _______ _______ _______ _____ _____    ______ ____
ROOT
ATOM      1  CA  LEU A   2     -28.436   8.424  48.180  0.00  0.00    +0.149 C 
ENDROOT
BRANCH   1   4
ATOM      2  C   VAL A   1     -29.463   6.700  49.591  0.00  0.00    +0.238 C 
ATOM      3  O   VAL A   1     -28.390   6.346  50.061  0.00  0.00    -0.274 OA
ATOM      4  N   LEU A   2     -29.593   7.736  48.764  0.00  0.00    -0.297 N 
ATOM      5  H   LEU A   2     -30.548   8.069  48.524  0.00  0.00    +0.150 HD
BRANCH   2   6
ATOM      6  CA  VAL A   1     -30.728   5.930  49.940  0.00  0.00    +0.145 C 
BRANCH   6   7
ATOM      7  CB  VAL A   1     -31.054   4.994  48.757  0.00  0.00    +0.025 C 
ATOM      8  CG2 VAL A   1     -32.292   4.144  49.069  0.00  0.00    +0.002 C 
ATOM      9  CG1 VAL A   1     -29.844   4.103  48.416  0.00  0.00    +0.002 C 
ENDBRANCH   6   7
BRANCH   6  10
ATOM     10  N   VAL A   1     -31.859   6.794  50.265  0.00  0.00    -0.238 NA
ATOM     11  H   VAL A   1     -32.606   6.927  49.553  0.00  0.00    +0.142 HD
ENDBRANCH   6  10
ENDBRANCH   2   6
ENDBRANCH   1   4
BRANCH   1  12
ATOM     12  C   LEU A   2     -28.044   9.731  48.889  0.00  0.00    +0.241 C 
ATOM     13  N   LYS A   3     -28.872  10.181  49.839  0.00  0.00    -0.298 N 
ATOM     14  H   LYS A   3     -29.795   9.715  49.949  0.00  0.00    +0.150 HD
ATOM     15  O   LEU A   2     -27.009  10.318  48.563  0.00  0.00    -0.273 OA
BRANCH  13  16
ATOM     16  CA  LYS A   3     -28.544  11.300  50.736  0.00  0.00    +0.137 C 
BRANCH  16  17
ATOM     17  C   LYS A   3     -28.390  12.635  50.009  0.00  0.00    +0.227 C 
ATOM     18  O   LYS A   3     -27.514  13.433  50.333  0.00  0.00    -0.286 OA
ENDBRANCH  16  17
BRANCH  16  19
ATOM     19  CB  LYS A   3     -27.270  10.995  51.558  0.00  0.00    +0.028 C 
BRANCH  19  20
ATOM     20  CG  LYS A   3     -27.235   9.619  52.228  0.00  0.00    -0.000 C 
BRANCH  20  21
ATOM     21  CD  LYS A   3     -28.530   9.329  52.988  0.00  0.00    -0.024 C 
BRANCH  21  22
ATOM     22  CE  LYS A   3     -28.322   8.398  54.189  0.00  0.00    -0.086 C 
BRANCH  22  23
ATOM     23  NZ  LYS A   3     -29.307   7.284  54.215  0.00  0.00    +0.380 N 
ATOM     24  HZ1 LYS A   3     -29.126   6.682  55.044  0.00  0.00    -0.089 HD
ATOM     25  HZ2 LYS A   3     -30.269   7.675  54.272  0.00  0.00    -0.089 HD
ATOM     26  HZ3 LYS A   3     -29.212   6.718  53.347  0.00  0.00    -0.089 HD
ENDBRANCH  22  23
ENDBRANCH  21  22
ENDBRANCH  20  21
ENDBRANCH  19  20
ENDBRANCH  16  19
ENDBRANCH  13  16
ENDBRANCH   1  12
BRANCH   1  27
ATOM     27  CB  LEU A   2     -28.677   8.692  46.685  0.00  0.00    +0.029 C 
BRANCH  27  28
ATOM     28  CG  LEU A   2     -28.763   7.484  45.743  0.00  0.00    +0.002 C 
ATOM     29  CD2 LEU A   2     -27.452   6.688  45.691  0.00  0.00    +0.000 C 
ATOM     30  CD1 LEU A   2     -29.157   7.943  44.339  0.00  0.00    +0.000 C 
ENDBRANCH  27  28
ENDBRANCH   1  27
TORSDOF 14
REMARK  Name = ../refined-set-2016/3cd0/3cd0_pocket.pdb
REMARK  247 active torsions:
REMARK  status: ('A' for Active; 'I' for Inactive)
REMARK    1  A    between atoms: _1  and  _3
REMARK    2  A    between atoms: _3  and  _4
REMARK    3  A    between atoms: _3  and  _6
REMARK    4  A    between atoms: _6  and  _7
REMARK    5  A    between atoms: _10  and  _12
REMARK    6  A    between atoms: _12  and  _13
REMARK    7  A    between atoms: _12  and  _15
REMARK    8  A    between atoms: _15  and  _16
REMARK    9  A    between atoms: _16  and  _17
REMARK   10  A    between atoms: _20  and  _22
REMARK   11  A    between atoms: _22  and  _23
REMARK   12  A    between atoms: _25  and  _27
REMARK   13  A    between atoms: _27  and  _28
REMARK   14  A    between atoms: _27  and  _30
REMARK   15  A    between atoms: _32  and  _34
REMARK   16  A    between atoms: _34  and  _35
REMARK   17  A    between atoms: _34  and  _37
REMARK   18  A    between atoms: _37  and  _38
REMARK   19  A    between atoms: _41  and  _43
REMARK   20  A    between atoms: _43  and  _44
REMARK   21  A    between atoms: _43  and  _46
REMARK   22  A    between atoms: _49  and  _51
REMARK   23  A    between atoms: _51  and  _52
REMARK   24  A    between atoms: _55  and  _57
REMARK   25  A    between atoms: _57  and  _58
REMARK   26  A    between atoms: _57  and  _60
REMARK   27  A    between atoms: _60  and  _61
REMARK   28  A    between atoms: _63  and  _65
REMARK   29  A    between atoms: _65  and  _66
REMARK   30  A    between atoms: _65  and  _68
REMARK   31  A    between atoms: _68  and  _69
REMARK   32  A    between atoms: _72  and  _74
REMARK   33  A    between atoms: _74  and  _75
REMARK   34  A    between atoms: _74  and  _77
REMARK   35  A    between atoms: _77  and  _78
REMARK   36  A    between atoms: _83  and  _85
REMARK   37  A    between atoms: _85  and  _86
REMARK   38  A    between atoms: _85  and  _88
REMARK   39  A    between atoms: _88  and  _89
REMARK   40  A    between atoms: _89  and  _90
REMARK   41  A    between atoms: _90  and  _91
REMARK   42  A    between atoms: _100  and  _102
REMARK   43  A    between atoms: _102  and  _103
REMARK   44  A    between atoms: _105  and  _107
REMARK   45  A    between atoms: _107  and  _108
REMARK   46  A    between atoms: _107  and  _110
REMARK   47  A    between atoms: _113  and  _115
REMARK   48  A    between atoms: _115  and  _116
REMARK   49  A    between atoms: _115  and  _118
REMARK   50  A    between atoms: _118  and  _119
REMARK   51  A    between atoms: _122  and  _124
REMARK   52  A    between atoms: _124  and  _125
REMARK   53  A    between atoms: _124  and  _127
REMARK   54  A    between atoms: _127  and  _128
REMARK   55  A    between atoms: _128  and  _129
REMARK   56  A    between atoms: _129  and  _130
REMARK   57  A    between atoms: _130  and  _131
REMARK   58  A    between atoms: _135  and  _137
REMARK   59  A    between atoms: _137  and  _138
REMARK   60  A    between atoms: _137  and  _140
REMARK   61  A    between atoms: _140  and  _141
REMARK   62  A    between atoms: _141  and  _142
REMARK   63  A    between atoms: _142  and  _143
REMARK   64  A    between atoms: _143  and  _144
REMARK   65  A    between atoms: _148  and  _150
REMARK   66  A    between atoms: _150  and  _151
REMARK   67  A    between atoms: _150  and  _153
REMARK   68  A    between atoms: _153  and  _154
REMARK   69  A    between atoms: _159  and  _161
REMARK   70  A    between atoms: _161  and  _162
REMARK   71  A    between atoms: _161  and  _164
REMARK   72  A    between atoms: _164  and  _165
REMARK   73  A    between atoms: _170  and  _172
REMARK   74  A    between atoms: _172  and  _173
REMARK   75  A    between atoms: _176  and  _178
REMARK   76  A    between atoms: _178  and  _179
REMARK   77  A    between atoms: _178  and  _181
REMARK   78  A    between atoms: _181  and  _182
REMARK   79  A    between atoms: _187  and  _189
REMARK   80  A    between atoms: _189  and  _190
REMARK   81  A    between atoms: _193  and  _195
REMARK   82  A    between atoms: _195  and  _196
REMARK   83  A    between atoms: _199  and  _201
REMARK   84  A    between atoms: _201  and  _202
REMARK   85  A    between atoms: _201  and  _204
REMARK   86  A    between atoms: _204  and  _205
REMARK   87  A    between atoms: _210  and  _212
REMARK   88  A    between atoms: _212  and  _213
REMARK   89  A    between atoms: _212  and  _215
REMARK   90  A    between atoms: _215  and  _216
REMARK   91  A    between atoms: _219  and  _221
REMARK   92  A    between atoms: _221  and  _222
REMARK   93  A    between atoms: _224  and  _226
REMARK   94  A    between atoms: _226  and  _227
REMARK   95  A    between atoms: _226  and  _229
REMARK   96  A    between atoms: _229  and  _230
REMARK   97  A    between atoms: _230  and  _231
REMARK   98  A    between atoms: _234  and  _236
REMARK   99  A    between atoms: _236  and  _237
REMARK  100  A    between atoms: _236  and  _239
REMARK  101  A    between atoms: _239  and  _240
REMARK  102  A    between atoms: _243  and  _245
REMARK  103  A    between atoms: _245  and  _246
REMARK  104  A    between atoms: _245  and  _248
REMARK  105  A    between atoms: _248  and  _249
REMARK  106  A    between atoms: _251  and  _253
REMARK  107  A    between atoms: _253  and  _254
REMARK  108  A    between atoms: _253  and  _256
REMARK  109  A    between atoms: _256  and  _257
REMARK  110  A    between atoms: _260  and  _262
REMARK  111  A    between atoms: _262  and  _263
REMARK  112  A    between atoms: _262  and  _265
REMARK  113  A    between atoms: _265  and  _266
REMARK  114  A    between atoms: _266  and  _267
REMARK  115  A    between atoms: _269  and  _271
REMARK  116  A    between atoms: _271  and  _272
REMARK  117  A    between atoms: _275  and  _277
REMARK  118  A    between atoms: _277  and  _278
REMARK  119  A    between atoms: _281  and  _283
REMARK  120  A    between atoms: _283  and  _284
REMARK  121  A    between atoms: _283  and  _286
REMARK  122  A    between atoms: _286  and  _287
REMARK  123  A    between atoms: _290  and  _292
REMARK  124  A    between atoms: _292  and  _293
REMARK  125  A    between atoms: _292  and  _295
REMARK  126  A    between atoms: _295  and  _296
REMARK  127  A    between atoms: _301  and  _303
REMARK  128  A    between atoms: _303  and  _304
REMARK  129  A    between atoms: _303  and  _306
REMARK  130  A    between atoms: _306  and  _307
REMARK  131  A    between atoms: _307  and  _308
REMARK  132  A    between atoms: _311  and  _313
REMARK  133  A    between atoms: _313  and  _314
REMARK  134  A    between atoms: _313  and  _316
REMARK  135  A    between atoms: _316  and  _317
REMARK  136  A    between atoms: _322  and  _324
REMARK  137  A    between atoms: _324  and  _325
REMARK  138  A    between atoms: _324  and  _327
REMARK  139  A    between atoms: _327  and  _328
REMARK  140  A    between atoms: _331  and  _333
REMARK  141  A    between atoms: _333  and  _334
REMARK  142  A    between atoms: _333  and  _336
REMARK  143  A    between atoms: _336  and  _337
REMARK  144  A    between atoms: _337  and  _338
REMARK  145  A    between atoms: _338  and  _339
REMARK  146  A    between atoms: _348  and  _350
REMARK  147  A    between atoms: _350  and  _351
REMARK  148  A    between atoms: _353  and  _355
REMARK  149  A    between atoms: _355  and  _356
REMARK  150  A    between atoms: _355  and  _358
REMARK  151  A    between atoms: _358  and  _359
REMARK  152  A    between atoms: _359  and  _360
REMARK  153  A    between atoms: _362  and  _364
REMARK  154  A    between atoms: _364  and  _365
REMARK  155  A    between atoms: _364  and  _367
REMARK  156  A    between atoms: _367  and  _368
REMARK  157  A    between atoms: _368  and  _369
REMARK  158  A    between atoms: _371  and  _373
REMARK  159  A    between atoms: _373  and  _374
REMARK  160  A    between atoms: _373  and  _376
REMARK  161  A    between atoms: _376  and  _377
REMARK  162  A    between atoms: _382  and  _384
REMARK  163  A    between atoms: _384  and  _385
REMARK  164  A    between atoms: _384  and  _387
REMARK  165  A    between atoms: _387  and  _388
REMARK  166  A    between atoms: _391  and  _393
REMARK  167  A    between atoms: _393  and  _394
REMARK  168  A    between atoms: _393  and  _396
REMARK  169  A    between atoms: _396  and  _397
REMARK  170  A    between atoms: _399  and  _401
REMARK  171  A    between atoms: _401  and  _402
REMARK  172  A    between atoms: _401  and  _404
REMARK  173  A    between atoms: _404  and  _405
REMARK  174  A    between atoms: _405  and  _406
REMARK  175  A    between atoms: _406  and  _407
REMARK  176  A    between atoms: _407  and  _408
REMARK  177  A    between atoms: _412  and  _414
REMARK  178  A    between atoms: _414  and  _415
REMARK  179  A    between atoms: _414  and  _417
REMARK  180  A    between atoms: _417  and  _418
REMARK  181  A    between atoms: _421  and  _423
REMARK  182  A    between atoms: _423  and  _424
REMARK  183  A    between atoms: _423  and  _426
REMARK  184  A    between atoms: _426  and  _427
REMARK  185  A    between atoms: _427  and  _428
REMARK  186  A    between atoms: _431  and  _433
REMARK  187  A    between atoms: _433  and  _434
REMARK  188  A    between atoms: _437  and  _439
REMARK  189  A    between atoms: _439  and  _440
REMARK  190  A    between atoms: _439  and  _442
REMARK  191  A    between atoms: _445  and  _447
REMARK  192  A    between atoms: _447  and  _448
REMARK  193  A    between atoms: _447  and  _450
REMARK  194  A    between atoms: _450  and  _451
REMARK  195  A    between atoms: _453  and  _455
REMARK  196  A    between atoms: _455  and  _456
REMARK  197  A    between atoms: _458  and  _460
REMARK  198  A    between atoms: _460  and  _461
REMARK  199  A    between atoms: _460  and  _463
REMARK  200  A    between atoms: _463  and  _464
REMARK  201  A    between atoms: _469  and  _471
REMARK  202  A    between atoms: _471  and  _472
REMARK  203  A    between atoms: _471  and  _474
REMARK  204  A    between atoms: _474  and  _475
REMARK  205  A    between atoms: _480  and  _481
REMARK  206  A    between atoms: _483  and  _485
REMARK  207  A    between atoms: _485  and  _486
REMARK  208  A    between atoms: _485  and  _488
REMARK  209  A    between atoms: _490  and  _492
REMARK  210  A    between atoms: _492  and  _493
REMARK  211  A    between atoms: _492  and  _495
REMARK  212  A    between atoms: _495  and  _496
REMARK  213  A    between atoms: _499  and  _501
REMARK  214  A    between atoms: _501  and  _502
REMARK  215  A    between atoms: _501  and  _504
REMARK  216  A    between atoms: _504  and  _505
REMARK  217  A    between atoms: _508  and  _510
REMARK  218  A    between atoms: _510  and  _511
REMARK  219  A    between atoms: _510  and  _513
REMARK  220  A    between atoms: _513  and  _514
REMARK  221  A    between atoms: _514  and  _515
REMARK  222  A    between atoms: _515  and  _516
REMARK  223  A    between atoms: _516  and  _517
REMARK  224  A    between atoms: _521  and  _523
REMARK  225  A    between atoms: _523  and  _524
REMARK  226  A    between atoms: _523  and  _526
REMARK  227  A    between atoms: _526  and  _527
REMARK  228  A    between atoms: _527  and  _528
REMARK  229  A    between atoms: _528  and  _529
REMARK  230  A    between atoms: _529  and  _530
REMARK  231  A    between atoms: _534  and  _536
REMARK  232  A    between atoms: _536  and  _537
REMARK  233  A    between atoms: _536  and  _539
REMARK  234  A    between atoms: _539  and  _540
REMARK  235  A    between atoms: _540  and  _541
REMARK  236  A    between atoms: _541  and  _542
REMARK  237  A    between atoms: _551  and  _553
REMARK  238  A    between atoms: _553  and  _554
REMARK  239  A    between atoms: _553  and  _556
REMARK  240  A    between atoms: _556  and  _557
REMARK  241  A    between atoms: _560  and  _562
REMARK  242  A    between atoms: _562  and  _563
REMARK  243  A    between atoms: _566  and  _568
REMARK  244  A    between atoms: _568  and  _569
REMARK  245  A    between atoms: _568  and  _571
REMARK  246  A    between atoms: _571  and  _572
REMARK  247  A    between atoms: _572  and  _573
REMARK                            x       y       z     vdW  Elec       q    Type
REMARK                         _______ _______ _______ _____ _____    ______ ____
ROOT
ATOM      1  C   LYS A   1     -18.863  16.881  34.736  0.00  0.00    +0.238 C 
ATOM      2  N   ASN A   2     -19.868  16.058  34.468  0.00  0.00    -0.298 N 
ATOM      3  H   ASN A   2     -20.750  16.134  35.014  0.00  0.00    +0.150 HD
ATOM      4  O   LYS A   1     -17.850  16.951  34.036  0.00  0.00    -0.274 OA
ENDROOT
BRANCH   1   5
ATOM      5  CA  LYS A   1     -19.017  17.749  35.986  0.00  0.00    +0.145 C 
BRANCH   5   6
ATOM      6  N   LYS A   1     -20.165  18.647  35.846  0.00  0.00    -0.238 NA
ATOM      7  H   LYS A   1     -21.116  18.271  36.036  0.00  0.00    +0.142 HD
ENDBRANCH   5   6
BRANCH   5   8
ATOM      8  CB  LYS A   1     -19.175  16.847  37.211  0.00  0.00    +0.026 C 
BRANCH   8   9
ATOM      9  CG  LYS A   1     -18.146  15.717  37.328  0.00  0.00    -0.000 C 
BRANCH   9  10
ATOM     10  CD  LYS A   1     -18.604  14.688  38.344  0.00  0.00    -0.024 C 
BRANCH  10  11
ATOM     11  CE  LYS A   1     -17.649  13.512  38.446  0.00  0.00    -0.086 C 
BRANCH  11  12
ATOM     12  NZ  LYS A   1     -16.292  13.913  38.917  0.00  0.00    +0.380 N 
ATOM     13  HZ1 LYS A   1     -16.367  14.346  39.860  0.00  0.00    -0.089 HD
ATOM     14  HZ2 LYS A   1     -15.682  13.072  38.968  0.00  0.00    -0.089 HD
ATOM     15  HZ3 LYS A   1     -15.884  14.599  38.251  0.00  0.00    -0.089 HD
ENDBRANCH  11  12
ENDBRANCH  10  11
ENDBRANCH   9  10
ENDBRANCH   8   9
ENDBRANCH   5   8
ENDBRANCH   1   5
BRANCH   2  16
ATOM     16  CA  ASN A   2     -19.758  15.048  33.420  0.00  0.00    +0.146 C 
BRANCH  16  17
ATOM     17  C   ASN A   2     -19.905  15.557  32.003  0.00  0.00    +0.227 C 
ATOM     18  O   ASN A   2     -19.435  14.899  31.091  0.00  0.00    -0.286 OA
ENDBRANCH  16  17
BRANCH  16  19
ATOM     19  CB  ASN A   2     -20.738  13.906  33.666  0.00  0.00    +0.112 C 
BRANCH  19  20
ATOM     20  CG  ASN A   2     -20.310  13.021  34.804  0.00  0.00    +0.222 C 
ATOM     21  OD1 ASN A   2     -19.173  13.111  35.284  0.00  0.00    -0.275 OA
ATOM     22  ND2 ASN A   2     -21.207  12.144  35.239  0.00  0.00    -0.329 N 
ATOM     23 HD21 ASN A   2     -20.966  11.495  36.015  0.00  0.00    +0.145 HD
ATOM     24 HD22 ASN A   2     -22.151  12.106  34.804  0.00  0.00    +0.145 HD
ENDBRANCH  19  20
ENDBRANCH  16  19
ENDBRANCH   2  16
TORSDOF 11
REMARK  Name = ../refined-set-2016/3cd0/3cd0_pocket.pdb
REMARK  247 active torsions:
REMARK  status: ('A' for Active; 'I' for Inactive)
REMARK    1  A    between atoms: _1  and  _3
REMARK    2  A    between atoms: _3  and  _4
REMARK    3  A    between atoms: _3  and  _6
REMARK    4  A    between atoms: _6  and  _7
REMARK    5  A    between atoms: _10  and  _12
REMARK    6  A    between atoms: _12  and  _13
REMARK    7  A    between atoms: _12  and  _15
REMARK    8  A    between atoms: _15  and  _16
REMARK    9  A    between atoms: _16  and  _17
REMARK   10  A    between atoms: _20  and  _22
REMARK   11  A    between atoms: _22  and  _23
REMARK   12  A    between atoms: _25  and  _27
REMARK   13  A    between atoms: _27  and  _28
REMARK   14  A    between atoms: _27  and  _30
REMARK   15  A    between atoms: _32  and  _34
REMARK   16  A    between atoms: _34  and  _35
REMARK   17  A    between atoms: _34  and  _37
REMARK   18  A    between atoms: _37  and  _38
REMARK   19  A    between atoms: _41  and  _43
REMARK   20  A    between atoms: _43  and  _44
REMARK   21  A    between atoms: _43  and  _46
REMARK   22  A    between atoms: _49  and  _51
REMARK   23  A    between atoms: _51  and  _52
REMARK   24  A    between atoms: _55  and  _57
REMARK   25  A    between atoms: _57  and  _58
REMARK   26  A    between atoms: _57  and  _60
REMARK   27  A    between atoms: _60  and  _61
REMARK   28  A    between atoms: _63  and  _65
REMARK   29  A    between atoms: _65  and  _66
REMARK   30  A    between atoms: _65  and  _68
REMARK   31  A    between atoms: _68  and  _69
REMARK   32  A    between atoms: _72  and  _74
REMARK   33  A    between atoms: _74  and  _75
REMARK   34  A    between atoms: _74  and  _77
REMARK   35  A    between atoms: _77  and  _78
REMARK   36  A    between atoms: _83  and  _85
REMARK   37  A    between atoms: _85  and  _86
REMARK   38  A    between atoms: _85  and  _88
REMARK   39  A    between atoms: _88  and  _89
REMARK   40  A    between atoms: _89  and  _90
REMARK   41  A    between atoms: _90  and  _91
REMARK   42  A    between atoms: _100  and  _102
REMARK   43  A    between atoms: _102  and  _103
REMARK   44  A    between atoms: _105  and  _107
REMARK   45  A    between atoms: _107  and  _108
REMARK   46  A    between atoms: _107  and  _110
REMARK   47  A    between atoms: _113  and  _115
REMARK   48  A    between atoms: _115  and  _116
REMARK   49  A    between atoms: _115  and  _118
REMARK   50  A    between atoms: _118  and  _119
REMARK   51  A    between atoms: _122  and  _124
REMARK   52  A    between atoms: _124  and  _125
REMARK   53  A    between atoms: _124  and  _127
REMARK   54  A    between atoms: _127  and  _128
REMARK   55  A    between atoms: _128  and  _129
REMARK   56  A    between atoms: _129  and  _130
REMARK   57  A    between atoms: _130  and  _131
REMARK   58  A    between atoms: _135  and  _137
REMARK   59  A    between atoms: _137  and  _138
REMARK   60  A    between atoms: _137  and  _140
REMARK   61  A    between atoms: _140  and  _141
REMARK   62  A    between atoms: _141  and  _142
REMARK   63  A    between atoms: _142  and  _143
REMARK   64  A    between atoms: _143  and  _144
REMARK   65  A    between atoms: _148  and  _150
REMARK   66  A    between atoms: _150  and  _151
REMARK   67  A    between atoms: _150  and  _153
REMARK   68  A    between atoms: _153  and  _154
REMARK   69  A    between atoms: _159  and  _161
REMARK   70  A    between atoms: _161  and  _162
REMARK   71  A    between atoms: _161  and  _164
REMARK   72  A    between atoms: _164  and  _165
REMARK   73  A    between atoms: _170  and  _172
REMARK   74  A    between atoms: _172  and  _173
REMARK   75  A    between atoms: _176  and  _178
REMARK   76  A    between atoms: _178  and  _179
REMARK   77  A    between atoms: _178  and  _181
REMARK   78  A    between atoms: _181  and  _182
REMARK   79  A    between atoms: _187  and  _189
REMARK   80  A    between atoms: _189  and  _190
REMARK   81  A    between atoms: _193  and  _195
REMARK   82  A    between atoms: _195  and  _196
REMARK   83  A    between atoms: _199  and  _201
REMARK   84  A    between atoms: _201  and  _202
REMARK   85  A    between atoms: _201  and  _204
REMARK   86  A    between atoms: _204  and  _205
REMARK   87  A    between atoms: _210  and  _212
REMARK   88  A    between atoms: _212  and  _213
REMARK   89  A    between atoms: _212  and  _215
REMARK   90  A    between atoms: _215  and  _216
REMARK   91  A    between atoms: _219  and  _221
REMARK   92  A    between atoms: _221  and  _222
REMARK   93  A    between atoms: _224  and  _226
REMARK   94  A    between atoms: _226  and  _227
REMARK   95  A    between atoms: _226  and  _229
REMARK   96  A    between atoms: _229  and  _230
REMARK   97  A    between atoms: _230  and  _231
REMARK   98  A    between atoms: _234  and  _236
REMARK   99  A    between atoms: _236  and  _237
REMARK  100  A    between atoms: _236  and  _239
REMARK  101  A    between atoms: _239  and  _240
REMARK  102  A    between atoms: _243  and  _245
REMARK  103  A    between atoms: _245  and  _246
REMARK  104  A    between atoms: _245  and  _248
REMARK  105  A    between atoms: _248  and  _249
REMARK  106  A    between atoms: _251  and  _253
REMARK  107  A    between atoms: _253  and  _254
REMARK  108  A    between atoms: _253  and  _256
REMARK  109  A    between atoms: _256  and  _257
REMARK  110  A    between atoms: _260  and  _262
REMARK  111  A    between atoms: _262  and  _263
REMARK  112  A    between atoms: _262  and  _265
REMARK  113  A    between atoms: _265  and  _266
REMARK  114  A    between atoms: _266  and  _267
REMARK  115  A    between atoms: _269  and  _271
REMARK  116  A    between atoms: _271  and  _272
REMARK  117  A    between atoms: _275  and  _277
REMARK  118  A    between atoms: _277  and  _278
REMARK  119  A    between atoms: _281  and  _283
REMARK  120  A    between atoms: _283  and  _284
REMARK  121  A    between atoms: _283  and  _286
REMARK  122  A    between atoms: _286  and  _287
REMARK  123  A    between atoms: _290  and  _292
REMARK  124  A    between atoms: _292  and  _293
REMARK  125  A    between atoms: _292  and  _295
REMARK  126  A    between atoms: _295  and  _296
REMARK  127  A    between atoms: _301  and  _303
REMARK  128  A    between atoms: _303  and  _304
REMARK  129  A    between atoms: _303  and  _306
REMARK  130  A    between atoms: _306  and  _307
REMARK  131  A    between atoms: _307  and  _308
REMARK  132  A    between atoms: _311  and  _313
REMARK  133  A    between atoms: _313  and  _314
REMARK  134  A    between atoms: _313  and  _316
REMARK  135  A    between atoms: _316  and  _317
REMARK  136  A    between atoms: _322  and  _324
REMARK  137  A    between atoms: _324  and  _325
REMARK  138  A    between atoms: _324  and  _327
REMARK  139  A    between atoms: _327  and  _328
REMARK  140  A    between atoms: _331  and  _333
REMARK  141  A    between atoms: _333  and  _334
REMARK  142  A    between atoms: _333  and  _336
REMARK  143  A    between atoms: _336  and  _337
REMARK  144  A    between atoms: _337  and  _338
REMARK  145  A    between atoms: _338  and  _339
REMARK  146  A    between atoms: _348  and  _350
REMARK  147  A    between atoms: _350  and  _351
REMARK  148  A    between atoms: _353  and  _355
REMARK  149  A    between atoms: _355  and  _356
REMARK  150  A    between atoms: _355  and  _358
REMARK  151  A    between atoms: _358  and  _359
REMARK  152  A    between atoms: _359  and  _360
REMARK  153  A    between atoms: _362  and  _364
REMARK  154  A    between atoms: _364  and  _365
REMARK  155  A    between atoms: _364  and  _367
REMARK  156  A    between atoms: _367  and  _368
REMARK  157  A    between atoms: _368  and  _369
REMARK  158  A    between atoms: _371  and  _373
REMARK  159  A    between atoms: _373  and  _374
REMARK  160  A    between atoms: _373  and  _376
REMARK  161  A    between atoms: _376  and  _377
REMARK  162  A    between atoms: _382  and  _384
REMARK  163  A    between atoms: _384  and  _385
REMARK  164  A    between atoms: _384  and  _387
REMARK  165  A    between atoms: _387  and  _388
REMARK  166  A    between atoms: _391  and  _393
REMARK  167  A    between atoms: _393  and  _394
REMARK  168  A    between atoms: _393  and  _396
REMARK  169  A    between atoms: _396  and  _397
REMARK  170  A    between atoms: _399  and  _401
REMARK  171  A    between atoms: _401  and  _402
REMARK  172  A    between atoms: _401  and  _404
REMARK  173  A    between atoms: _404  and  _405
REMARK  174  A    between atoms: _405  and  _406
REMARK  175  A    between atoms: _406  and  _407
REMARK  176  A    between atoms: _407  and  _408
REMARK  177  A    between atoms: _412  and  _414
REMARK  178  A    between atoms: _414  and  _415
REMARK  179  A    between atoms: _414  and  _417
REMARK  180  A    between atoms: _417  and  _418
REMARK  181  A    between atoms: _421  and  _423
REMARK  182  A    between atoms: _423  and  _424
REMARK  183  A    between atoms: _423  and  _426
REMARK  184  A    between atoms: _426  and  _427
REMARK  185  A    between atoms: _427  and  _428
REMARK  186  A    between atoms: _431  and  _433
REMARK  187  A    between atoms: _433  and  _434
REMARK  188  A    between atoms: _437  and  _439
REMARK  189  A    between atoms: _439  and  _440
REMARK  190  A    between atoms: _439  and  _442
REMARK  191  A    between atoms: _445  and  _447
REMARK  192  A    between atoms: _447  and  _448
REMARK  193  A    between atoms: _447  and  _450
REMARK  194  A    between atoms: _450  and  _451
REMARK  195  A    between atoms: _453  and  _455
REMARK  196  A    between atoms: _455  and  _456
REMARK  197  A    between atoms: _458  and  _460
REMARK  198  A    between atoms: _460  and  _461
REMARK  199  A    between atoms: _460  and  _463
REMARK  200  A    between atoms: _463  and  _464
REMARK  201  A    between atoms: _469  and  _471
REMARK  202  A    between atoms: _471  and  _472
REMARK  203  A    between atoms: _471  and  _474
REMARK  204  A    between atoms: _474  and  _475
REMARK  205  A    between atoms: _480  and  _481
REMARK  206  A    between atoms: _483  and  _485
REMARK  207  A    between atoms: _485  and  _486
REMARK  208  A    between atoms: _485  and  _488
REMARK  209  A    between atoms: _490  and  _492
REMARK  210  A    between atoms: _492  and  _493
REMARK  211  A    between atoms: _492  and  _495
REMARK  212  A    between atoms: _495  and  _496
REMARK  213  A    between atoms: _499  and  _501
REMARK  214  A    between atoms: _501  and  _502
REMARK  215  A    between atoms: _501  and  _504
REMARK  216  A    between atoms: _504  and  _505
REMARK  217  A    between atoms: _508  and  _510
REMARK  218  A    between atoms: _510  and  _511
REMARK  219  A    between atoms: _510  and  _513
REMARK  220  A    between atoms: _513  and  _514
REMARK  221  A    between atoms: _514  and  _515
REMARK  222  A    between atoms: _515  and  _516
REMARK  223  A    between atoms: _516  and  _517
REMARK  224  A    between atoms: _521  and  _523
REMARK  225  A    between atoms: _523  and  _524
REMARK  226  A    between atoms: _523  and  _526
REMARK  227  A    between atoms: _526  and  _527
REMARK  228  A    between atoms: _527  and  _528
REMARK  229  A    between atoms: _528  and  _529
REMARK  230  A    between atoms: _529  and  _530
REMARK  231  A    between atoms: _534  and  _536
REMARK  232  A    between atoms: _536  and  _537
REMARK  233  A    between atoms: _536  and  _539
REMARK  234  A    between atoms: _539  and  _540
REMARK  235  A    between atoms: _540  and  _541
REMARK  236  A    between atoms: _541  and  _542
REMARK  237  A    between atoms: _551  and  _553
REMARK  238  A    between atoms: _553  and  _554
REMARK  239  A    between atoms: _553  and  _556
REMARK  240  A    between atoms: _556  and  _557
REMARK  241  A    between atoms: _560  and  _562
REMARK  242  A    between atoms: _562  and  _563
REMARK  243  A    between atoms: _566  and  _568
REMARK  244  A    between atoms: _568  and  _569
REMARK  245  A    between atoms: _568  and  _571
REMARK  246  A    between atoms: _571  and  _572
REMARK  247  A    between atoms: _572  and  _573
REMARK                            x       y       z     vdW  Elec       q    Type
REMARK                         _______ _______ _______ _____ _____    ______ ____
ROOT
ATOM      1  C   HIS A   3     -16.441   5.276  36.486  0.00  0.00    +0.241 C 
ATOM      2  O   HIS A   3     -16.334   4.257  37.160  0.00  0.00    -0.273 OA
ATOM      3  N   ALA A   4     -16.916   5.263  35.244  0.00  0.00    -0.297 N 
ATOM      4  H   ALA A   4     -17.022   6.161  34.730  0.00  0.00    +0.150 HD
ENDROOT
BRANCH   3   5
ATOM      5  CA  ALA A   4     -17.295   4.006  34.581  0.00  0.00    +0.149 C 
ATOM      6  CB  ALA A   4     -17.892   4.276  33.201  0.00  0.00    +0.031 C 
BRANCH   5   7
ATOM      7  C   ALA A   4     -16.118   3.043  34.454  0.00  0.00    +0.241 C 
ATOM      8  O   ALA A   4     -16.315   1.840  34.446  0.00  0.00    -0.273 OA
ATOM      9  N   ALA A   5     -14.906   3.579  34.345  0.00  0.00    -0.297 N 
ATOM     10  H   ALA A   5     -14.824   4.614  34.283  0.00  0.00    +0.150 HD
BRANCH   9  11
ATOM     11  CA  ALA A   5     -13.680   2.776  34.308  0.00  0.00    +0.149 C 
ATOM     12  CB  ALA A   5     -12.471   3.671  34.090  0.00  0.00    +0.031 C 
BRANCH  11  13
ATOM     13  C   ALA A   5     -13.481   1.919  35.566  0.00  0.00    +0.241 C 
ATOM     14  N   ASN A   6     -13.846   2.430  36.732  0.00  0.00    -0.297 N 
ATOM     15  H   ASN A   6     -14.177   3.414  36.786  0.00  0.00    +0.150 HD
ATOM     16  O   ALA A   5     -13.001   0.797  35.479  0.00  0.00    -0.273 OA
BRANCH  14  17
ATOM     17  CA  ASN A   6     -13.784   1.612  37.944  0.00  0.00    +0.158 C 
BRANCH  17  18
ATOM     18  C   ASN A   6     -14.623   0.336  37.842  0.00  0.00    +0.241 C 
ATOM     19  O   ASN A   6     -14.150  -0.740  38.189  0.00  0.00    -0.273 OA
ATOM     20  N   ILE A   7     -15.858   0.451  37.365  0.00  0.00    -0.298 N 
ATOM     21  H   ILE A   7     -16.189   1.376  37.025  0.00  0.00    +0.150 HD
BRANCH  20  22
ATOM     22  CA  ILE A   7     -16.760  -0.699  37.309  0.00  0.00    +0.137 C 
BRANCH  22  23
ATOM     23  C   ILE A   7     -16.346  -1.665  36.183  0.00  0.00    +0.227 C 
ATOM     24  O   ILE A   7     -16.313  -2.881  36.373  0.00  0.00    -0.286 OA
ENDBRANCH  22  23
BRANCH  22  25
ATOM     25  CB  ILE A   7     -18.241  -0.244  37.155  0.00  0.00    +0.026 C 
ATOM     26  CG2 ILE A   7     -19.127  -1.393  36.645  0.00  0.00    +0.002 C 
BRANCH  25  27
ATOM     27  CG1 ILE A   7     -18.809   0.218  38.497  0.00  0.00    +0.002 C 
ATOM     28  CD1 ILE A   7     -18.088   1.375  39.149  0.00  0.00    +0.000 C 
ENDBRANCH  25  27
ENDBRANCH  22  25
ENDBRANCH  20  22
ENDBRANCH  17  18
BRANCH  17  29
ATOM     29  CB  ASN A   6     -14.211   2.413  39.184  0.00  0.00    +0.114 C 
BRANCH  29  30
ATOM     30  CG  ASN A   6     -13.078   3.234  39.777  0.00  0.00    +0.222 C 
ATOM     31  ND2 ASN A   6     -13.435   4.219  40.597  0.00  0.00    -0.329 N 
ATOM     32 HD21 ASN A   6     -12.708   4.817  41.039  0.00  0.00    +0.145 HD
ATOM     33 HD22 ASN A   6     -14.441   4.391  40.796  0.00  0.00    +0.145 HD
ATOM     34  OD1 ASN A   6     -11.900   2.986  39.506  0.00  0.00    -0.275 OA
ENDBRANCH  29  30
ENDBRANCH  17  29
ENDBRANCH  14  17
ENDBRANCH  11  13
ENDBRANCH   9  11
ENDBRANCH   5   7
ENDBRANCH   3   5
BRANCH   1  35
ATOM     35  CA  HIS A   3     -15.991   6.635  37.039  0.00  0.00    +0.155 C 
BRANCH  35  38
ATOM     36  C   ALA A   2     -16.653   8.960  36.838  0.00  0.00    +0.241 C 
ATOM     37  O   ALA A   2     -15.514   9.336  37.073  0.00  0.00    -0.273 OA
ATOM     38  N   HIS A   3     -16.980   7.679  36.778  0.00  0.00    -0.297 N 
ATOM     39  H   HIS A   3     -17.957   7.411  36.541  0.00  0.00    +0.150 HD
BRANCH  36  40
ATOM     40  CA  ALA A   2     -17.767   9.967  36.626  0.00  0.00    +0.149 C 
ATOM     41  CB  ALA A   2     -18.757   9.917  37.804  0.00  0.00    +0.031 C 
BRANCH  40  43
ATOM     42  C   ASN A   1     -18.063  10.355  34.230  0.00  0.00    +0.239 C 
ATOM     43  N   ALA A   2     -18.461   9.768  35.355  0.00  0.00    -0.297 N 
ATOM     44  H   ALA A   2     -19.294   9.146  35.330  0.00  0.00    +0.150 HD
ATOM     45  O   ASN A   1     -17.030  11.023  34.156  0.00  0.00    -0.274 OA
BRANCH  42  46
ATOM     46  CA  ASN A   1     -18.948  10.145  32.991  0.00  0.00    +0.154 C 
BRANCH  46  47
ATOM     47  N   ASN A   1     -18.457  10.962  31.888  0.00  0.00    -0.238 NA
ATOM     48  H   ASN A   1     -17.447  11.208  31.873  0.00  0.00    +0.142 HD
ENDBRANCH  46  47
BRANCH  46  49
ATOM     49  CB  ASN A   1     -18.958   8.666  32.585  0.00  0.00    +0.111 C 
BRANCH  49  50
ATOM     50  CG  ASN A   1     -17.562   8.136  32.256  0.00  0.00    +0.221 C 
ATOM     51  OD1 ASN A   1     -16.848   7.663  33.137  0.00  0.00    -0.275 OA
ATOM     52  ND2 ASN A   1     -17.175   8.213  30.985  0.00  0.00    -0.329 N 
ATOM     53 HD21 ASN A   1     -16.236   7.865  30.705  0.00  0.00    +0.145 HD
ATOM     54 HD22 ASN A   1     -17.812   8.621  30.271  0.00  0.00    +0.145 HD
ENDBRANCH  49  50
ENDBRANCH  46  49
ENDBRANCH  42  46
ENDBRANCH  40  43
ENDBRANCH  36  40
ENDBRANCH  35  38
BRANCH  35  55
ATOM     55  CB  HIS A   3     -15.667   6.558  38.547  0.00  0.00    +0.076 C 
BRANCH  55  56
ATOM     56  CG  HIS A   3     -16.746   5.922  39.360  0.00  0.00    +0.082 A 
ATOM     57  ND1 HIS A   3     -16.529   4.802  40.128  0.00  0.00    -0.227 NA
ATOM     58  CE1 HIS A   3     -17.660   4.441  40.708  0.00  0.00    +0.199 A 
ATOM     59  NE2 HIS A   3     -18.600   5.297  40.354  0.00  0.00    -0.221 NA
ATOM     60  CD2 HIS A   3     -18.055   6.232  39.506  0.00  0.00    +0.115 A 
ENDBRANCH  55  56
ENDBRANCH  35  55
ENDBRANCH   1  35
TORSDOF 22
REMARK  Name = ../refined-set-2016/3cd0/3cd0_pocket.pdb
REMARK  247 active torsions:
REMARK  status: ('A' for Active; 'I' for Inactive)
REMARK    1  A    between atoms: _1  and  _3
REMARK    2  A    between atoms: _3  and  _4
REMARK    3  A    between atoms: _3  and  _6
REMARK    4  A    between atoms: _6  and  _7
REMARK    5  A    between atoms: _10  and  _12
REMARK    6  A    between atoms: _12  and  _13
REMARK    7  A    between atoms: _12  and  _15
REMARK    8  A    between atoms: _15  and  _16
REMARK    9  A    between atoms: _16  and  _17
REMARK   10  A    between atoms: _20  and  _22
REMARK   11  A    between atoms: _22  and  _23
REMARK   12  A    between atoms: _25  and  _27
REMARK   13  A    between atoms: _27  and  _28
REMARK   14  A    between atoms: _27  and  _30
REMARK   15  A    between atoms: _32  and  _34
REMARK   16  A    between atoms: _34  and  _35
REMARK   17  A    between atoms: _34  and  _37
REMARK   18  A    between atoms: _37  and  _38
REMARK   19  A    between atoms: _41  and  _43
REMARK   20  A    between atoms: _43  and  _44
REMARK   21  A    between atoms: _43  and  _46
REMARK   22  A    between atoms: _49  and  _51
REMARK   23  A    between atoms: _51  and  _52
REMARK   24  A    between atoms: _55  and  _57
REMARK   25  A    between atoms: _57  and  _58
REMARK   26  A    between atoms: _57  and  _60
REMARK   27  A    between atoms: _60  and  _61
REMARK   28  A    between atoms: _63  and  _65
REMARK   29  A    between atoms: _65  and  _66
REMARK   30  A    between atoms: _65  and  _68
REMARK   31  A    between atoms: _68  and  _69
REMARK   32  A    between atoms: _72  and  _74
REMARK   33  A    between atoms: _74  and  _75
REMARK   34  A    between atoms: _74  and  _77
REMARK   35  A    between atoms: _77  and  _78
REMARK   36  A    between atoms: _83  and  _85
REMARK   37  A    between atoms: _85  and  _86
REMARK   38  A    between atoms: _85  and  _88
REMARK   39  A    between atoms: _88  and  _89
REMARK   40  A    between atoms: _89  and  _90
REMARK   41  A    between atoms: _90  and  _91
REMARK   42  A    between atoms: _100  and  _102
REMARK   43  A    between atoms: _102  and  _103
REMARK   44  A    between atoms: _105  and  _107
REMARK   45  A    between atoms: _107  and  _108
REMARK   46  A    between atoms: _107  and  _110
REMARK   47  A    between atoms: _113  and  _115
REMARK   48  A    between atoms: _115  and  _116
REMARK   49  A    between atoms: _115  and  _118
REMARK   50  A    between atoms: _118  and  _119
REMARK   51  A    between atoms: _122  and  _124
REMARK   52  A    between atoms: _124  and  _125
REMARK   53  A    between atoms: _124  and  _127
REMARK   54  A    between atoms: _127  and  _128
REMARK   55  A    between atoms: _128  and  _129
REMARK   56  A    between atoms: _129  and  _130
REMARK   57  A    between atoms: _130  and  _131
REMARK   58  A    between atoms: _135  and  _137
REMARK   59  A    between atoms: _137  and  _138
REMARK   60  A    between atoms: _137  and  _140
REMARK   61  A    between atoms: _140  and  _141
REMARK   62  A    between atoms: _141  and  _142
REMARK   63  A    between atoms: _142  and  _143
REMARK   64  A    between atoms: _143  and  _144
REMARK   65  A    between atoms: _148  and  _150
REMARK   66  A    between atoms: _150  and  _151
REMARK   67  A    between atoms: _150  and  _153
REMARK   68  A    between atoms: _153  and  _154
REMARK   69  A    between atoms: _159  and  _161
REMARK   70  A    between atoms: _161  and  _162
REMARK   71  A    between atoms: _161  and  _164
REMARK   72  A    between atoms: _164  and  _165
REMARK   73  A    between atoms: _170  and  _172
REMARK   74  A    between atoms: _172  and  _173
REMARK   75  A    between atoms: _176  and  _178
REMARK   76  A    between atoms: _178  and  _179
REMARK   77  A    between atoms: _178  and  _181
REMARK   78  A    between atoms: _181  and  _182
REMARK   79  A    between atoms: _187  and  _189
REMARK   80  A    between atoms: _189  and  _190
REMARK   81  A    between atoms: _193  and  _195
REMARK   82  A    between atoms: _195  and  _196
REMARK   83  A    between atoms: _199  and  _201
REMARK   84  A    between atoms: _201  and  _202
REMARK   85  A    between atoms: _201  and  _204
REMARK   86  A    between atoms: _204  and  _205
REMARK   87  A    between atoms: _210  and  _212
REMARK   88  A    between atoms: _212  and  _213
REMARK   89  A    between atoms: _212  and  _215
REMARK   90  A    between atoms: _215  and  _216
REMARK   91  A    between atoms: _219  and  _221
REMARK   92  A    between atoms: _221  and  _222
REMARK   93  A    between atoms: _224  and  _226
REMARK   94  A    between atoms: _226  and  _227
REMARK   95  A    between atoms: _226  and  _229
REMARK   96  A    between atoms: _229  and  _230
REMARK   97  A    between atoms: _230  and  _231
REMARK   98  A    between atoms: _234  and  _236
REMARK   99  A    between atoms: _236  and  _237
REMARK  100  A    between atoms: _236  and  _239
REMARK  101  A    between atoms: _239  and  _240
REMARK  102  A    between atoms: _243  and  _245
REMARK  103  A    between atoms: _245  and  _246
REMARK  104  A    between atoms: _245  and  _248
REMARK  105  A    between atoms: _248  and  _249
REMARK  106  A    between atoms: _251  and  _253
REMARK  107  A    between atoms: _253  and  _254
REMARK  108  A    between atoms: _253  and  _256
REMARK  109  A    between atoms: _256  and  _257
REMARK  110  A    between atoms: _260  and  _262
REMARK  111  A    between atoms: _262  and  _263
REMARK  112  A    between atoms: _262  and  _265
REMARK  113  A    between atoms: _265  and  _266
REMARK  114  A    between atoms: _266  and  _267
REMARK  115  A    between atoms: _269  and  _271
REMARK  116  A    between atoms: _271  and  _272
REMARK  117  A    between atoms: _275  and  _277
REMARK  118  A    between atoms: _277  and  _278
REMARK  119  A    between atoms: _281  and  _283
REMARK  120  A    between atoms: _283  and  _284
REMARK  121  A    between atoms: _283  and  _286
REMARK  122  A    between atoms: _286  and  _287
REMARK  123  A    between atoms: _290  and  _292
REMARK  124  A    between atoms: _292  and  _293
REMARK  125  A    between atoms: _292  and  _295
REMARK  126  A    between atoms: _295  and  _296
REMARK  127  A    between atoms: _301  and  _303
REMARK  128  A    between atoms: _303  and  _304
REMARK  129  A    between atoms: _303  and  _306
REMARK  130  A    between atoms: _306  and  _307
REMARK  131  A    between atoms: _307  and  _308
REMARK  132  A    between atoms: _311  and  _313
REMARK  133  A    between atoms: _313  and  _314
REMARK  134  A    between atoms: _313  and  _316
REMARK  135  A    between atoms: _316  and  _317
REMARK  136  A    between atoms: _322  and  _324
REMARK  137  A    between atoms: _324  and  _325
REMARK  138  A    between atoms: _324  and  _327
REMARK  139  A    between atoms: _327  and  _328
REMARK  140  A    between atoms: _331  and  _333
REMARK  141  A    between atoms: _333  and  _334
REMARK  142  A    between atoms: _333  and  _336
REMARK  143  A    between atoms: _336  and  _337
REMARK  144  A    between atoms: _337  and  _338
REMARK  145  A    between atoms: _338  and  _339
REMARK  146  A    between atoms: _348  and  _350
REMARK  147  A    between atoms: _350  and  _351
REMARK  148  A    between atoms: _353  and  _355
REMARK  149  A    between atoms: _355  and  _356
REMARK  150  A    between atoms: _355  and  _358
REMARK  151  A    between atoms: _358  and  _359
REMARK  152  A    between atoms: _359  and  _360
REMARK  153  A    between atoms: _362  and  _364
REMARK  154  A    between atoms: _364  and  _365
REMARK  155  A    between atoms: _364  and  _367
REMARK  156  A    between atoms: _367  and  _368
REMARK  157  A    between atoms: _368  and  _369
REMARK  158  A    between atoms: _371  and  _373
REMARK  159  A    between atoms: _373  and  _374
REMARK  160  A    between atoms: _373  and  _376
REMARK  161  A    between atoms: _376  and  _377
REMARK  162  A    between atoms: _382  and  _384
REMARK  163  A    between atoms: _384  and  _385
REMARK  164  A    between atoms: _384  and  _387
REMARK  165  A    between atoms: _387  and  _388
REMARK  166  A    between atoms: _391  and  _393
REMARK  167  A    between atoms: _393  and  _394
REMARK  168  A    between atoms: _393  and  _396
REMARK  169  A    between atoms: _396  and  _397
REMARK  170  A    between atoms: _399  and  _401
REMARK  171  A    between atoms: _401  and  _402
REMARK  172  A    between atoms: _401  and  _404
REMARK  173  A    between atoms: _404  and  _405
REMARK  174  A    between atoms: _405  and  _406
REMARK  175  A    between atoms: _406  and  _407
REMARK  176  A    between atoms: _407  and  _408
REMARK  177  A    between atoms: _412  and  _414
REMARK  178  A    between atoms: _414  and  _415
REMARK  179  A    between atoms: _414  and  _417
REMARK  180  A    between atoms: _417  and  _418
REMARK  181  A    between atoms: _421  and  _423
REMARK  182  A    between atoms: _423  and  _424
REMARK  183  A    between atoms: _423  and  _426
REMARK  184  A    between atoms: _426  and  _427
REMARK  185  A    between atoms: _427  and  _428
REMARK  186  A    between atoms: _431  and  _433
REMARK  187  A    between atoms: _433  and  _434
REMARK  188  A    between atoms: _437  and  _439
REMARK  189  A    between atoms: _439  and  _440
REMARK  190  A    between atoms: _439  and  _442
REMARK  191  A    between atoms: _445  and  _447
REMARK  192  A    between atoms: _447  and  _448
REMARK  193  A    between atoms: _447  and  _450
REMARK  194  A    between atoms: _450  and  _451
REMARK  195  A    between atoms: _453  and  _455
REMARK  196  A    between atoms: _455  and  _456
REMARK  197  A    between atoms: _458  and  _460
REMARK  198  A    between atoms: _460  and  _461
REMARK  199  A    between atoms: _460  and  _463
REMARK  200  A    between atoms: _463  and  _464
REMARK  201  A    between atoms: _469  and  _471
REMARK  202  A    between atoms: _471  and  _472
REMARK  203  A    between atoms: _471  and  _474
REMARK  204  A    between atoms: _474  and  _475
REMARK  205  A    between atoms: _480  and  _481
REMARK  206  A    between atoms: _483  and  _485
REMARK  207  A    between atoms: _485  and  _486
REMARK  208  A    between atoms: _485  and  _488
REMARK  209  A    between atoms: _490  and  _492
REMARK  210  A    between atoms: _492  and  _493
REMARK  211  A    between atoms: _492  and  _495
REMARK  212  A    between atoms: _495  and  _496
REMARK  213  A    between atoms: _499  and  _501
REMARK  214  A    between atoms: _501  and  _502
REMARK  215  A    between atoms: _501  and  _504
REMARK  216  A    between atoms: _504  and  _505
REMARK  217  A    between atoms: _508  and  _510
REMARK  218  A    between atoms: _510  and  _511
REMARK  219  A    between atoms: _510  and  _513
REMARK  220  A    between atoms: _513  and  _514
REMARK  221  A    between atoms: _514  and  _515
REMARK  222  A    between atoms: _515  and  _516
REMARK  223  A    between atoms: _516  and  _517
REMARK  224  A    between atoms: _521  and  _523
REMARK  225  A    between atoms: _523  and  _524
REMARK  226  A    between atoms: _523  and  _526
REMARK  227  A    between atoms: _526  and  _527
REMARK  228  A    between atoms: _527  and  _528
REMARK  229  A    between atoms: _528  and  _529
REMARK  230  A    between atoms: _529  and  _530
REMARK  231  A    between atoms: _534  and  _536
REMARK  232  A    between atoms: _536  and  _537
REMARK  233  A    between atoms: _536  and  _539
REMARK  234  A    between atoms: _539  and  _540
REMARK  235  A    between atoms: _540  and  _541
REMARK  236  A    between atoms: _541  and  _542
REMARK  237  A    between atoms: _551  and  _553
REMARK  238  A    between atoms: _553  and  _554
REMARK  239  A    between atoms: _553  and  _556
REMARK  240  A    between atoms: _556  and  _557
REMARK  241  A    between atoms: _560  and  _562
REMARK  242  A    between atoms: _562  and  _563
REMARK  243  A    between atoms: _566  and  _568
REMARK  244  A    between atoms: _568  and  _569
REMARK  245  A    between atoms: _568  and  _571
REMARK  246  A    between atoms: _571  and  _572
REMARK  247  A    between atoms: _572  and  _573
REMARK                            x       y       z     vdW  Elec       q    Type
REMARK                         _______ _______ _______ _____ _____    ______ ____
ROOT
ATOM      1  CA  LEU A   5     -20.418   8.474  43.350  0.00  0.00    +0.149 C 
ENDROOT
BRANCH   1   4
ATOM      2  C   SER A   4     -22.463   7.494  44.227  0.00  0.00    +0.243 C 
ATOM      3  O   SER A   4     -22.409   8.212  45.203  0.00  0.00    -0.273 OA
ATOM      4  N   LEU A   5     -21.523   7.513  43.287  0.00  0.00    -0.297 N 
ATOM      5  H   LEU A   5     -21.572   6.838  42.497  0.00  0.00    +0.150 HD
BRANCH   2   6
ATOM      6  CA  SER A   4     -23.627   6.525  44.066  0.00  0.00    +0.178 C 
BRANCH   6   9
ATOM      7  C   LEU A   3     -24.972   7.368  42.200  0.00  0.00    +0.241 C 
ATOM      8  O   LEU A   3     -25.232   8.419  42.776  0.00  0.00    -0.273 OA
ATOM      9  N   SER A   4     -24.151   6.446  42.699  0.00  0.00    -0.295 N 
ATOM     10  H   SER A   4     -23.872   5.643  42.099  0.00  0.00    +0.150 HD
BRANCH   7  11
ATOM     11  CA  LEU A   3     -25.584   7.078  40.833  0.00  0.00    +0.149 C 
BRANCH  11  14
ATOM     12  C   GLU A   2     -23.501   7.204  39.572  0.00  0.00    +0.241 C 
ATOM     13  O   GLU A   2     -23.235   8.312  40.035  0.00  0.00    -0.273 OA
ATOM     14  N   LEU A   3     -24.604   6.529  39.900  0.00  0.00    -0.297 N 
ATOM     15  H   LEU A   3     -24.770   5.591  39.482  0.00  0.00    +0.150 HD
BRANCH  12  16
ATOM     16  CA  GLU A   2     -22.543   6.536  38.586  0.00  0.00    +0.149 C 
BRANCH  16  19
ATOM     17  C   GLY A   1     -21.839   4.702  40.002  0.00  0.00    +0.240 C 
ATOM     18  O   GLY A   1     -21.331   5.476  40.800  0.00  0.00    -0.274 OA
ATOM     19  N   GLU A   2     -22.439   5.116  38.891  0.00  0.00    -0.297 N 
ATOM     20  H   GLU A   2     -22.839   4.418  38.232  0.00  0.00    +0.150 HD
BRANCH  17  21
ATOM     21  CA  GLY A   1     -21.804   3.212  40.261  0.00  0.00    +0.169 C 
BRANCH  21  22
ATOM     22  N   GLY A   1     -22.969   2.523  39.742  0.00  0.00    -0.236 NA
ATOM     23  H   GLY A   1     -22.837   1.806  39.000  0.00  0.00    +0.142 HD
ENDBRANCH  21  22
ENDBRANCH  17  21
ENDBRANCH  16  19
BRANCH  16  24
ATOM     24  CB  GLU A   2     -23.015   6.771  37.152  0.00  0.00    +0.041 C 
BRANCH  24  25
ATOM     25  CG  GLU A   2     -22.011   6.386  36.075  0.00  0.00    +0.116 C 
BRANCH  25  26
ATOM     26  CD  GLU A   2     -20.869   7.372  35.940  0.00  0.00    +0.365 C 
ATOM     27  OE2 GLU A   2     -19.772   7.105  36.486  0.00  0.00    -0.246 OA
ATOM     28  OE1 GLU A   2     -21.064   8.406  35.277  0.00  0.00    -0.246 OA
ENDBRANCH  25  26
ENDBRANCH  24  25
ENDBRANCH  16  24
ENDBRANCH  12  16
ENDBRANCH  11  14
BRANCH  11  29
ATOM     29  CB  LEU A   3     -26.786   6.142  41.009  0.00  0.00    +0.029 C 
BRANCH  29  30
ATOM     30  CG  LEU A   3     -27.962   6.305  40.038  0.00  0.00    +0.002 C 
ATOM     31  CD2 LEU A   3     -28.960   5.189  40.276  0.00  0.00    +0.000 C 
ATOM     32  CD1 LEU A   3     -28.644   7.666  40.170  0.00  0.00    +0.000 C 
ENDBRANCH  29  30
ENDBRANCH  11  29
ENDBRANCH   7  11
ENDBRANCH   6   9
BRANCH   6  33
ATOM     33  CB  SER A   4     -23.208   5.137  44.563  0.00  0.00    +0.166 C 
BRANCH  33  34
ATOM     34  OG  SER A   4     -22.865   5.165  45.944  0.00  0.00    -0.380 OA
ATOM     35  H   SER A   4     -22.599   4.257  46.235  0.00  0.00    +0.211 HD
ENDBRANCH  33  34
ENDBRANCH   6  33
ENDBRANCH   2   6
ENDBRANCH   1   4
BRANCH   1  36
ATOM     36  C   LEU A   5     -20.903   9.897  43.110  0.00  0.00    +0.241 C 
ATOM     37  O   LEU A   5     -20.397  10.832  43.728  0.00  0.00    -0.273 OA
ATOM     38  N   MET A   6     -21.859  10.058  42.197  0.00  0.00    -0.297 N 
ATOM     39  H   MET A   6     -22.236   9.224  41.703  0.00  0.00    +0.150 HD
BRANCH  38  40
ATOM     40  CA  MET A   6     -22.389  11.378  41.874  0.00  0.00    +0.149 C 
BRANCH  40  41
ATOM     41  C   MET A   6     -23.157  11.969  43.060  0.00  0.00    +0.241 C 
ATOM     42  N   ALA A   7     -23.883  11.121  43.786  0.00  0.00    -0.297 N 
ATOM     43  H   ALA A   7     -23.950  10.129  43.480  0.00  0.00    +0.150 HD
ATOM     44  O   MET A   6     -23.084  13.167  43.302  0.00  0.00    -0.273 OA
BRANCH  42  45
ATOM     45  CA  ALA A   7     -24.590  11.533  44.998  0.00  0.00    +0.149 C 
ATOM     46  CB  ALA A   7     -25.487  10.403  45.501  0.00  0.00    +0.031 C 
BRANCH  45  47
ATOM     47  C   ALA A   7     -23.612  11.941  46.091  0.00  0.00    +0.241 C 
ATOM     48  O   ALA A   7     -23.859  12.897  46.829  0.00  0.00    -0.273 OA
ATOM     49  N   ALA A   8     -22.501  11.218  46.189  0.00  0.00    -0.297 N 
ATOM     50  H   ALA A   8     -22.344  10.434  45.524  0.00  0.00    +0.150 HD
BRANCH  49  51
ATOM     51  CA  ALA A   8     -21.498  11.501  47.209  0.00  0.00    +0.149 C 
ATOM     52  CB  ALA A   8     -20.455  10.411  47.250  0.00  0.00    +0.031 C 
BRANCH  51  53
ATOM     53  C   ALA A   8     -20.845  12.847  46.960  0.00  0.00    +0.241 C 
ATOM     54  O   ALA A   8     -20.675  13.626  47.893  0.00  0.00    -0.273 OA
ATOM     55  N   LEU A   9     -20.503  13.129  45.705  0.00  0.00    -0.298 N 
ATOM     56  H   LEU A   9     -20.689  12.425  44.963  0.00  0.00    +0.150 HD
BRANCH  55  57
ATOM     57  CA  LEU A   9     -19.871  14.404  45.334  0.00  0.00    +0.137 C 
BRANCH  57  58
ATOM     58  C   LEU A   9     -20.835  15.579  45.489  0.00  0.00    +0.227 C 
ATOM     59  O   LEU A   9     -20.428  16.676  45.868  0.00  0.00    -0.286 OA
ENDBRANCH  57  58
BRANCH  57  60
ATOM     60  CB  LEU A   9     -19.356  14.371  43.887  0.00  0.00    +0.028 C 
BRANCH  60  61
ATOM     61  CG  LEU A   9     -18.271  13.348  43.543  0.00  0.00    +0.002 C 
ATOM     62  CD2 LEU A   9     -16.913  13.809  44.042  0.00  0.00    +0.000 C 
ATOM     63  CD1 LEU A   9     -18.246  13.100  42.039  0.00  0.00    +0.000 C 
ENDBRANCH  60  61
ENDBRANCH  57  60
ENDBRANCH  55  57
ENDBRANCH  51  53
ENDBRANCH  49  51
ENDBRANCH  45  47
ENDBRANCH  42  45
ENDBRANCH  40  41
BRANCH  40  64
ATOM     64  CB  MET A   6     -23.287  11.334  40.628  0.00  0.00    +0.041 C 
BRANCH  64  65
ATOM     65  CG  MET A   6     -22.530  11.082  39.319  0.00  0.00    +0.060 C 
BRANCH  65  66
ATOM     66  SD  MET A   6     -21.405  12.397  38.888  0.00  0.00    -0.139 S 
ATOM     67  CE  MET A   6     -22.589  13.599  38.363  0.00  0.00    +0.069 C 
ENDBRANCH  65  66
ENDBRANCH  64  65
ENDBRANCH  40  64
ENDBRANCH  38  40
ENDBRANCH   1  36
BRANCH   1  68
ATOM     68  CB  LEU A   5     -19.304   8.138  42.346  0.00  0.00    +0.029 C 
BRANCH  68  69
ATOM     69  CG  LEU A   5     -18.103   9.099  42.324  0.00  0.00    +0.002 C 
ATOM     70  CD2 LEU A   5     -17.449   9.211  43.703  0.00  0.00    +0.000 C 
ATOM     71  CD1 LEU A   5     -17.059   8.687  41.283  0.00  0.00    +0.000 C 
ENDBRANCH  68  69
ENDBRANCH   1  68
TORSDOF 32
REMARK  Name = ../refined-set-2016/3cd0/3cd0_pocket.pdb
REMARK  247 active torsions:
REMARK  status: ('A' for Active; 'I' for Inactive)
REMARK    1  A    between atoms: _1  and  _3
REMARK    2  A    between atoms: _3  and  _4
REMARK    3  A    between atoms: _3  and  _6
REMARK    4  A    between atoms: _6  and  _7
REMARK    5  A    between atoms: _10  and  _12
REMARK    6  A    between atoms: _12  and  _13
REMARK    7  A    between atoms: _12  and  _15
REMARK    8  A    between atoms: _15  and  _16
REMARK    9  A    between atoms: _16  and  _17
REMARK   10  A    between atoms: _20  and  _22
REMARK   11  A    between atoms: _22  and  _23
REMARK   12  A    between atoms: _25  and  _27
REMARK   13  A    between atoms: _27  and  _28
REMARK   14  A    between atoms: _27  and  _30
REMARK   15  A    between atoms: _32  and  _34
REMARK   16  A    between atoms: _34  and  _35
REMARK   17  A    between atoms: _34  and  _37
REMARK   18  A    between atoms: _37  and  _38
REMARK   19  A    between atoms: _41  and  _43
REMARK   20  A    between atoms: _43  and  _44
REMARK   21  A    between atoms: _43  and  _46
REMARK   22  A    between atoms: _49  and  _51
REMARK   23  A    between atoms: _51  and  _52
REMARK   24  A    between atoms: _55  and  _57
REMARK   25  A    between atoms: _57  and  _58
REMARK   26  A    between atoms: _57  and  _60
REMARK   27  A    between atoms: _60  and  _61
REMARK   28  A    between atoms: _63  and  _65
REMARK   29  A    between atoms: _65  and  _66
REMARK   30  A    between atoms: _65  and  _68
REMARK   31  A    between atoms: _68  and  _69
REMARK   32  A    between atoms: _72  and  _74
REMARK   33  A    between atoms: _74  and  _75
REMARK   34  A    between atoms: _74  and  _77
REMARK   35  A    between atoms: _77  and  _78
REMARK   36  A    between atoms: _83  and  _85
REMARK   37  A    between atoms: _85  and  _86
REMARK   38  A    between atoms: _85  and  _88
REMARK   39  A    between atoms: _88  and  _89
REMARK   40  A    between atoms: _89  and  _90
REMARK   41  A    between atoms: _90  and  _91
REMARK   42  A    between atoms: _100  and  _102
REMARK   43  A    between atoms: _102  and  _103
REMARK   44  A    between atoms: _105  and  _107
REMARK   45  A    between atoms: _107  and  _108
REMARK   46  A    between atoms: _107  and  _110
REMARK   47  A    between atoms: _113  and  _115
REMARK   48  A    between atoms: _115  and  _116
REMARK   49  A    between atoms: _115  and  _118
REMARK   50  A    between atoms: _118  and  _119
REMARK   51  A    between atoms: _122  and  _124
REMARK   52  A    between atoms: _124  and  _125
REMARK   53  A    between atoms: _124  and  _127
REMARK   54  A    between atoms: _127  and  _128
REMARK   55  A    between atoms: _128  and  _129
REMARK   56  A    between atoms: _129  and  _130
REMARK   57  A    between atoms: _130  and  _131
REMARK   58  A    between atoms: _135  and  _137
REMARK   59  A    between atoms: _137  and  _138
REMARK   60  A    between atoms: _137  and  _140
REMARK   61  A    between atoms: _140  and  _141
REMARK   62  A    between atoms: _141  and  _142
REMARK   63  A    between atoms: _142  and  _143
REMARK   64  A    between atoms: _143  and  _144
REMARK   65  A    between atoms: _148  and  _150
REMARK   66  A    between atoms: _150  and  _151
REMARK   67  A    between atoms: _150  and  _153
REMARK   68  A    between atoms: _153  and  _154
REMARK   69  A    between atoms: _159  and  _161
REMARK   70  A    between atoms: _161  and  _162
REMARK   71  A    between atoms: _161  and  _164
REMARK   72  A    between atoms: _164  and  _165
REMARK   73  A    between atoms: _170  and  _172
REMARK   74  A    between atoms: _172  and  _173
REMARK   75  A    between atoms: _176  and  _178
REMARK   76  A    between atoms: _178  and  _179
REMARK   77  A    between atoms: _178  and  _181
REMARK   78  A    between atoms: _181  and  _182
REMARK   79  A    between atoms: _187  and  _189
REMARK   80  A    between atoms: _189  and  _190
REMARK   81  A    between atoms: _193  and  _195
REMARK   82  A    between atoms: _195  and  _196
REMARK   83  A    between atoms: _199  and  _201
REMARK   84  A    between atoms: _201  and  _202
REMARK   85  A    between atoms: _201  and  _204
REMARK   86  A    between atoms: _204  and  _205
REMARK   87  A    between atoms: _210  and  _212
REMARK   88  A    between atoms: _212  and  _213
REMARK   89  A    between atoms: _212  and  _215
REMARK   90  A    between atoms: _215  and  _216
REMARK   91  A    between atoms: _219  and  _221
REMARK   92  A    between atoms: _221  and  _222
REMARK   93  A    between atoms: _224  and  _226
REMARK   94  A    between atoms: _226  and  _227
REMARK   95  A    between atoms: _226  and  _229
REMARK   96  A    between atoms: _229  and  _230
REMARK   97  A    between atoms: _230  and  _231
REMARK   98  A    between atoms: _234  and  _236
REMARK   99  A    between atoms: _236  and  _237
REMARK  100  A    between atoms: _236  and  _239
REMARK  101  A    between atoms: _239  and  _240
REMARK  102  A    between atoms: _243  and  _245
REMARK  103  A    between atoms: _245  and  _246
REMARK  104  A    between atoms: _245  and  _248
REMARK  105  A    between atoms: _248  and  _249
REMARK  106  A    between atoms: _251  and  _253
REMARK  107  A    between atoms: _253  and  _254
REMARK  108  A    between atoms: _253  and  _256
REMARK  109  A    between atoms: _256  and  _257
REMARK  110  A    between atoms: _260  and  _262
REMARK  111  A    between atoms: _262  and  _263
REMARK  112  A    between atoms: _262  and  _265
REMARK  113  A    between atoms: _265  and  _266
REMARK  114  A    between atoms: _266  and  _267
REMARK  115  A    between atoms: _269  and  _271
REMARK  116  A    between atoms: _271  and  _272
REMARK  117  A    between atoms: _275  and  _277
REMARK  118  A    between atoms: _277  and  _278
REMARK  119  A    between atoms: _281  and  _283
REMARK  120  A    between atoms: _283  and  _284
REMARK  121  A    between atoms: _283  and  _286
REMARK  122  A    between atoms: _286  and  _287
REMARK  123  A    between atoms: _290  and  _292
REMARK  124  A    between atoms: _292  and  _293
REMARK  125  A    between atoms: _292  and  _295
REMARK  126  A    between atoms: _295  and  _296
REMARK  127  A    between atoms: _301  and  _303
REMARK  128  A    between atoms: _303  and  _304
REMARK  129  A    between atoms: _303  and  _306
REMARK  130  A    between atoms: _306  and  _307
REMARK  131  A    between atoms: _307  and  _308
REMARK  132  A    between atoms: _311  and  _313
REMARK  133  A    between atoms: _313  and  _314
REMARK  134  A    between atoms: _313  and  _316
REMARK  135  A    between atoms: _316  and  _317
REMARK  136  A    between atoms: _322  and  _324
REMARK  137  A    between atoms: _324  and  _325
REMARK  138  A    between atoms: _324  and  _327
REMARK  139  A    between atoms: _327  and  _328
REMARK  140  A    between atoms: _331  and  _333
REMARK  141  A    between atoms: _333  and  _334
REMARK  142  A    between atoms: _333  and  _336
REMARK  143  A    between atoms: _336  and  _337
REMARK  144  A    between atoms: _337  and  _338
REMARK  145  A    between atoms: _338  and  _339
REMARK  146  A    between atoms: _348  and  _350
REMARK  147  A    between atoms: _350  and  _351
REMARK  148  A    between atoms: _353  and  _355
REMARK  149  A    between atoms: _355  and  _356
REMARK  150  A    between atoms: _355  and  _358
REMARK  151  A    between atoms: _358  and  _359
REMARK  152  A    between atoms: _359  and  _360
REMARK  153  A    between atoms: _362  and  _364
REMARK  154  A    between atoms: _364  and  _365
REMARK  155  A    between atoms: _364  and  _367
REMARK  156  A    between atoms: _367  and  _368
REMARK  157  A    between atoms: _368  and  _369
REMARK  158  A    between atoms: _371  and  _373
REMARK  159  A    between atoms: _373  and  _374
REMARK  160  A    between atoms: _373  and  _376
REMARK  161  A    between atoms: _376  and  _377
REMARK  162  A    between atoms: _382  and  _384
REMARK  163  A    between atoms: _384  and  _385
REMARK  164  A    between atoms: _384  and  _387
REMARK  165  A    between atoms: _387  and  _388
REMARK  166  A    between atoms: _391  and  _393
REMARK  167  A    between atoms: _393  and  _394
REMARK  168  A    between atoms: _393  and  _396
REMARK  169  A    between atoms: _396  and  _397
REMARK  170  A    between atoms: _399  and  _401
REMARK  171  A    between atoms: _401  and  _402
REMARK  172  A    between atoms: _401  and  _404
REMARK  173  A    between atoms: _404  and  _405
REMARK  174  A    between atoms: _405  and  _406
REMARK  175  A    between atoms: _406  and  _407
REMARK  176  A    between atoms: _407  and  _408
REMARK  177  A    between atoms: _412  and  _414
REMARK  178  A    between atoms: _414  and  _415
REMARK  179  A    between atoms: _414  and  _417
REMARK  180  A    between atoms: _417  and  _418
REMARK  181  A    between atoms: _421  and  _423
REMARK  182  A    between atoms: _423  and  _424
REMARK  183  A    between atoms: _423  and  _426
REMARK  184  A    between atoms: _426  and  _427
REMARK  185  A    between atoms: _427  and  _428
REMARK  186  A    between atoms: _431  and  _433
REMARK  187  A    between atoms: _433  and  _434
REMARK  188  A    between atoms: _437  and  _439
REMARK  189  A    between atoms: _439  and  _440
REMARK  190  A    between atoms: _439  and  _442
REMARK  191  A    between atoms: _445  and  _447
REMARK  192  A    between atoms: _447  and  _448
REMARK  193  A    between atoms: _447  and  _450
REMARK  194  A    between atoms: _450  and  _451
REMARK  195  A    between atoms: _453  and  _455
REMARK  196  A    between atoms: _455  and  _456
REMARK  197  A    between atoms: _458  and  _460
REMARK  198  A    between atoms: _460  and  _461
REMARK  199  A    between atoms: _460  and  _463
REMARK  200  A    between atoms: _463  and  _464
REMARK  201  A    between atoms: _469  and  _471
REMARK  202  A    between atoms: _471  and  _472
REMARK  203  A    between atoms: _471  and  _474
REMARK  204  A    between atoms: _474  and  _475
REMARK  205  A    between atoms: _480  and  _481
REMARK  206  A    between atoms: _483  and  _485
REMARK  207  A    between atoms: _485  and  _486
REMARK  208  A    between atoms: _485  and  _488
REMARK  209  A    between atoms: _490  and  _492
REMARK  210  A    between atoms: _492  and  _493
REMARK  211  A    between atoms: _492  and  _495
REMARK  212  A    between atoms: _495  and  _496
REMARK  213  A    between atoms: _499  and  _501
REMARK  214  A    between atoms: _501  and  _502
REMARK  215  A    between atoms: _501  and  _504
REMARK  216  A    between atoms: _504  and  _505
REMARK  217  A    between atoms: _508  and  _510
REMARK  218  A    between atoms: _510  and  _511
REMARK  219  A    between atoms: _510  and  _513
REMARK  220  A    between atoms: _513  and  _514
REMARK  221  A    between atoms: _514  and  _515
REMARK  222  A    between atoms: _515  and  _516
REMARK  223  A    between atoms: _516  and  _517
REMARK  224  A    between atoms: _521  and  _523
REMARK  225  A    between atoms: _523  and  _524
REMARK  226  A    between atoms: _523  and  _526
REMARK  227  A    between atoms: _526  and  _527
REMARK  228  A    between atoms: _527  and  _528
REMARK  229  A    between atoms: _528  and  _529
REMARK  230  A    between atoms: _529  and  _530
REMARK  231  A    between atoms: _534  and  _536
REMARK  232  A    between atoms: _536  and  _537
REMARK  233  A    between atoms: _536  and  _539
REMARK  234  A    between atoms: _539  and  _540
REMARK  235  A    between atoms: _540  and  _541
REMARK  236  A    between atoms: _541  and  _542
REMARK  237  A    between atoms: _551  and  _553
REMARK  238  A    between atoms: _553  and  _554
REMARK  239  A    between atoms: _553  and  _556
REMARK  240  A    between atoms: _556  and  _557
REMARK  241  A    between atoms: _560  and  _562
REMARK  242  A    between atoms: _562  and  _563
REMARK  243  A    between atoms: _566  and  _568
REMARK  244  A    between atoms: _568  and  _569
REMARK  245  A    between atoms: _568  and  _571
REMARK  246  A    between atoms: _571  and  _572
REMARK  247  A    between atoms: _572  and  _573
REMARK                            x       y       z     vdW  Elec       q    Type
REMARK                         _______ _______ _______ _____ _____    ______ ____
ROOT
ATOM      1  CB  HIS A   1     -17.142  14.174  51.427  0.00  0.00    +0.072 C 
ENDROOT
BRANCH   1   2
ATOM      2  CG  HIS A   1     -15.916  13.769  50.659  0.00  0.00    +0.082 A 
ATOM      3  ND1 HIS A   1     -14.648  13.820  51.201  0.00  0.00    -0.227 NA
ATOM      4  CE1 HIS A   1     -13.769  13.413  50.302  0.00  0.00    +0.199 A 
ATOM      5  NE2 HIS A   1     -14.420  13.093  49.198  0.00  0.00    -0.221 NA
ATOM      6  CD2 HIS A   1     -15.764  13.310  49.393  0.00  0.00    +0.115 A 
ENDBRANCH   1   2
BRANCH   1   7
ATOM      7  CA  HIS A   1     -18.467  13.906  50.680  0.00  0.00    +0.139 C 
BRANCH   7   8
ATOM      8  N   HIS A   1     -18.976  15.112  50.008  0.00  0.00    -0.239 NA
ATOM      9  H   HIS A   1     -19.028  15.099  48.969  0.00  0.00    +0.142 HD
ENDBRANCH   7   8
BRANCH   7  10
ATOM     10  C   HIS A   1     -19.505  13.262  51.598  0.00  0.00    +0.224 C 
ATOM     11  O   HIS A   1     -20.241  12.379  51.147  0.00  0.00    -0.287 OA
ENDBRANCH   7  10
ENDBRANCH   1   7
TORSDOF 4
REMARK  Name = ../refined-set-2016/3cd0/3cd0_pocket.pdb
REMARK  247 active torsions:
REMARK  status: ('A' for Active; 'I' for Inactive)
REMARK    1  A    between atoms: _1  and  _3
REMARK    2  A    between atoms: _3  and  _4
REMARK    3  A    between atoms: _3  and  _6
REMARK    4  A    between atoms: _6  and  _7
REMARK    5  A    between atoms: _10  and  _12
REMARK    6  A    between atoms: _12  and  _13
REMARK    7  A    between atoms: _12  and  _15
REMARK    8  A    between atoms: _15  and  _16
REMARK    9  A    between atoms: _16  and  _17
REMARK   10  A    between atoms: _20  and  _22
REMARK   11  A    between atoms: _22  and  _23
REMARK   12  A    between atoms: _25  and  _27
REMARK   13  A    between atoms: _27  and  _28
REMARK   14  A    between atoms: _27  and  _30
REMARK   15  A    between atoms: _32  and  _34
REMARK   16  A    between atoms: _34  and  _35
REMARK   17  A    between atoms: _34  and  _37
REMARK   18  A    between atoms: _37  and  _38
REMARK   19  A    between atoms: _41  and  _43
REMARK   20  A    between atoms: _43  and  _44
REMARK   21  A    between atoms: _43  and  _46
REMARK   22  A    between atoms: _49  and  _51
REMARK   23  A    between atoms: _51  and  _52
REMARK   24  A    between atoms: _55  and  _57
REMARK   25  A    between atoms: _57  and  _58
REMARK   26  A    between atoms: _57  and  _60
REMARK   27  A    between atoms: _60  and  _61
REMARK   28  A    between atoms: _63  and  _65
REMARK   29  A    between atoms: _65  and  _66
REMARK   30  A    between atoms: _65  and  _68
REMARK   31  A    between atoms: _68  and  _69
REMARK   32  A    between atoms: _72  and  _74
REMARK   33  A    between atoms: _74  and  _75
REMARK   34  A    between atoms: _74  and  _77
REMARK   35  A    between atoms: _77  and  _78
REMARK   36  A    between atoms: _83  and  _85
REMARK   37  A    between atoms: _85  and  _86
REMARK   38  A    between atoms: _85  and  _88
REMARK   39  A    between atoms: _88  and  _89
REMARK   40  A    between atoms: _89  and  _90
REMARK   41  A    between atoms: _90  and  _91
REMARK   42  A    between atoms: _100  and  _102
REMARK   43  A    between atoms: _102  and  _103
REMARK   44  A    between atoms: _105  and  _107
REMARK   45  A    between atoms: _107  and  _108
REMARK   46  A    between atoms: _107  and  _110
REMARK   47  A    between atoms: _113  and  _115
REMARK   48  A    between atoms: _115  and  _116
REMARK   49  A    between atoms: _115  and  _118
REMARK   50  A    between atoms: _118  and  _119
REMARK   51  A    between atoms: _122  and  _124
REMARK   52  A    between atoms: _124  and  _125
REMARK   53  A    between atoms: _124  and  _127
REMARK   54  A    between atoms: _127  and  _128
REMARK   55  A    between atoms: _128  and  _129
REMARK   56  A    between atoms: _129  and  _130
REMARK   57  A    between atoms: _130  and  _131
REMARK   58  A    between atoms: _135  and  _137
REMARK   59  A    between atoms: _137  and  _138
REMARK   60  A    between atoms: _137  and  _140
REMARK   61  A    between atoms: _140  and  _141
REMARK   62  A    between atoms: _141  and  _142
REMARK   63  A    between atoms: _142  and  _143
REMARK   64  A    between atoms: _143  and  _144
REMARK   65  A    between atoms: _148  and  _150
REMARK   66  A    between atoms: _150  and  _151
REMARK   67  A    between atoms: _150  and  _153
REMARK   68  A    between atoms: _153  and  _154
REMARK   69  A    between atoms: _159  and  _161
REMARK   70  A    between atoms: _161  and  _162
REMARK   71  A    between atoms: _161  and  _164
REMARK   72  A    between atoms: _164  and  _165
REMARK   73  A    between atoms: _170  and  _172
REMARK   74  A    between atoms: _172  and  _173
REMARK   75  A    between atoms: _176  and  _178
REMARK   76  A    between atoms: _178  and  _179
REMARK   77  A    between atoms: _178  and  _181
REMARK   78  A    between atoms: _181  and  _182
REMARK   79  A    between atoms: _187  and  _189
REMARK   80  A    between atoms: _189  and  _190
REMARK   81  A    between atoms: _193  and  _195
REMARK   82  A    between atoms: _195  and  _196
REMARK   83  A    between atoms: _199  and  _201
REMARK   84  A    between atoms: _201  and  _202
REMARK   85  A    between atoms: _201  and  _204
REMARK   86  A    between atoms: _204  and  _205
REMARK   87  A    between atoms: _210  and  _212
REMARK   88  A    between atoms: _212  and  _213
REMARK   89  A    between atoms: _212  and  _215
REMARK   90  A    between atoms: _215  and  _216
REMARK   91  A    between atoms: _219  and  _221
REMARK   92  A    between atoms: _221  and  _222
REMARK   93  A    between atoms: _224  and  _226
REMARK   94  A    between atoms: _226  and  _227
REMARK   95  A    between atoms: _226  and  _229
REMARK   96  A    between atoms: _229  and  _230
REMARK   97  A    between atoms: _230  and  _231
REMARK   98  A    between atoms: _234  and  _236
REMARK   99  A    between atoms: _236  and  _237
REMARK  100  A    between atoms: _236  and  _239
REMARK  101  A    between atoms: _239  and  _240
REMARK  102  A    between atoms: _243  and  _245
REMARK  103  A    between atoms: _245  and  _246
REMARK  104  A    between atoms: _245  and  _248
REMARK  105  A    between atoms: _248  and  _249
REMARK  106  A    between atoms: _251  and  _253
REMARK  107  A    between atoms: _253  and  _254
REMARK  108  A    between atoms: _253  and  _256
REMARK  109  A    between atoms: _256  and  _257
REMARK  110  A    between atoms: _260  and  _262
REMARK  111  A    between atoms: _262  and  _263
REMARK  112  A    between atoms: _262  and  _265
REMARK  113  A    between atoms: _265  and  _266
REMARK  114  A    between atoms: _266  and  _267
REMARK  115  A    between atoms: _269  and  _271
REMARK  116  A    between atoms: _271  and  _272
REMARK  117  A    between atoms: _275  and  _277
REMARK  118  A    between atoms: _277  and  _278
REMARK  119  A    between atoms: _281  and  _283
REMARK  120  A    between atoms: _283  and  _284
REMARK  121  A    between atoms: _283  and  _286
REMARK  122  A    between atoms: _286  and  _287
REMARK  123  A    between atoms: _290  and  _292
REMARK  124  A    between atoms: _292  and  _293
REMARK  125  A    between atoms: _292  and  _295
REMARK  126  A    between atoms: _295  and  _296
REMARK  127  A    between atoms: _301  and  _303
REMARK  128  A    between atoms: _303  and  _304
REMARK  129  A    between atoms: _303  and  _306
REMARK  130  A    between atoms: _306  and  _307
REMARK  131  A    between atoms: _307  and  _308
REMARK  132  A    between atoms: _311  and  _313
REMARK  133  A    between atoms: _313  and  _314
REMARK  134  A    between atoms: _313  and  _316
REMARK  135  A    between atoms: _316  and  _317
REMARK  136  A    between atoms: _322  and  _324
REMARK  137  A    between atoms: _324  and  _325
REMARK  138  A    between atoms: _324  and  _327
REMARK  139  A    between atoms: _327  and  _328
REMARK  140  A    between atoms: _331  and  _333
REMARK  141  A    between atoms: _333  and  _334
REMARK  142  A    between atoms: _333  and  _336
REMARK  143  A    between atoms: _336  and  _337
REMARK  144  A    between atoms: _337  and  _338
REMARK  145  A    between atoms: _338  and  _339
REMARK  146  A    between atoms: _348  and  _350
REMARK  147  A    between atoms: _350  and  _351
REMARK  148  A    between atoms: _353  and  _355
REMARK  149  A    between atoms: _355  and  _356
REMARK  150  A    between atoms: _355  and  _358
REMARK  151  A    between atoms: _358  and  _359
REMARK  152  A    between atoms: _359  and  _360
REMARK  153  A    between atoms: _362  and  _364
REMARK  154  A    between atoms: _364  and  _365
REMARK  155  A    between atoms: _364  and  _367
REMARK  156  A    between atoms: _367  and  _368
REMARK  157  A    between atoms: _368  and  _369
REMARK  158  A    between atoms: _371  and  _373
REMARK  159  A    between atoms: _373  and  _374
REMARK  160  A    between atoms: _373  and  _376
REMARK  161  A    between atoms: _376  and  _377
REMARK  162  A    between atoms: _382  and  _384
REMARK  163  A    between atoms: _384  and  _385
REMARK  164  A    between atoms: _384  and  _387
REMARK  165  A    between atoms: _387  and  _388
REMARK  166  A    between atoms: _391  and  _393
REMARK  167  A    between atoms: _393  and  _394
REMARK  168  A    between atoms: _393  and  _396
REMARK  169  A    between atoms: _396  and  _397
REMARK  170  A    between atoms: _399  and  _401
REMARK  171  A    between atoms: _401  and  _402
REMARK  172  A    between atoms: _401  and  _404
REMARK  173  A    between atoms: _404  and  _405
REMARK  174  A    between atoms: _405  and  _406
REMARK  175  A    between atoms: _406  and  _407
REMARK  176  A    between atoms: _407  and  _408
REMARK  177  A    between atoms: _412  and  _414
REMARK  178  A    between atoms: _414  and  _415
REMARK  179  A    between atoms: _414  and  _417
REMARK  180  A    between atoms: _417  and  _418
REMARK  181  A    between atoms: _421  and  _423
REMARK  182  A    between atoms: _423  and  _424
REMARK  183  A    between atoms: _423  and  _426
REMARK  184  A    between atoms: _426  and  _427
REMARK  185  A    between atoms: _427  and  _428
REMARK  186  A    between atoms: _431  and  _433
REMARK  187  A    between atoms: _433  and  _434
REMARK  188  A    between atoms: _437  and  _439
REMARK  189  A    between atoms: _439  and  _440
REMARK  190  A    between atoms: _439  and  _442
REMARK  191  A    between atoms: _445  and  _447
REMARK  192  A    between atoms: _447  and  _448
REMARK  193  A    between atoms: _447  and  _450
REMARK  194  A    between atoms: _450  and  _451
REMARK  195  A    between atoms: _453  and  _455
REMARK  196  A    between atoms: _455  and  _456
REMARK  197  A    between atoms: _458  and  _460
REMARK  198  A    between atoms: _460  and  _461
REMARK  199  A    between atoms: _460  and  _463
REMARK  200  A    between atoms: _463  and  _464
REMARK  201  A    between atoms: _469  and  _471
REMARK  202  A    between atoms: _471  and  _472
REMARK  203  A    between atoms: _471  and  _474
REMARK  204  A    between atoms: _474  and  _475
REMARK  205  A    between atoms: _480  and  _481
REMARK  206  A    between atoms: _483  and  _485
REMARK  207  A    between atoms: _485  and  _486
REMARK  208  A    between atoms: _485  and  _488
REMARK  209  A    between atoms: _490  and  _492
REMARK  210  A    between atoms: _492  and  _493
REMARK  211  A    between atoms: _492  and  _495
REMARK  212  A    between atoms: _495  and  _496
REMARK  213  A    between atoms: _499  and  _501
REMARK  214  A    between atoms: _501  and  _502
REMARK  215  A    between atoms: _501  and  _504
REMARK  216  A    between atoms: _504  and  _505
REMARK  217  A    between atoms: _508  and  _510
REMARK  218  A    between atoms: _510  and  _511
REMARK  219  A    between atoms: _510  and  _513
REMARK  220  A    between atoms: _513  and  _514
REMARK  221  A    between atoms: _514  and  _515
REMARK  222  A    between atoms: _515  and  _516
REMARK  223  A    between atoms: _516  and  _517
REMARK  224  A    between atoms: _521  and  _523
REMARK  225  A    between atoms: _523  and  _524
REMARK  226  A    between atoms: _523  and  _526
REMARK  227  A    between atoms: _526  and  _527
REMARK  228  A    between atoms: _527  and  _528
REMARK  229  A    between atoms: _528  and  _529
REMARK  230  A    between atoms: _529  and  _530
REMARK  231  A    between atoms: _534  and  _536
REMARK  232  A    between atoms: _536  and  _537
REMARK  233  A    between atoms: _536  and  _539
REMARK  234  A    between atoms: _539  and  _540
REMARK  235  A    between atoms: _540  and  _541
REMARK  236  A    between atoms: _541  and  _542
REMARK  237  A    between atoms: _551  and  _553
REMARK  238  A    between atoms: _553  and  _554
REMARK  239  A    between atoms: _553  and  _556
REMARK  240  A    between atoms: _556  and  _557
REMARK  241  A    between atoms: _560  and  _562
REMARK  242  A    between atoms: _562  and  _563
REMARK  243  A    between atoms: _566  and  _568
REMARK  244  A    between atoms: _568  and  _569
REMARK  245  A    between atoms: _568  and  _571
REMARK  246  A    between atoms: _571  and  _572
REMARK  247  A    between atoms: _572  and  _573
REMARK                            x       y       z     vdW  Elec       q    Type
REMARK                         _______ _______ _______ _____ _____    ______ ____
ROOT
ATOM      1  C   GLU A   1     -17.033  -6.137  49.929  0.00  0.00    +0.238 C 
ATOM      2  N   ASN A   2     -17.968  -6.676  50.719  0.00  0.00    -0.298 N 
ATOM      3  H   ASN A   2     -18.100  -6.264  51.665  0.00  0.00    +0.150 HD
ATOM      4  O   GLU A   1     -16.812  -6.495  48.765  0.00  0.00    -0.274 OA
ENDROOT
BRANCH   1   5
ATOM      5  CA  GLU A   1     -16.223  -5.009  50.555  0.00  0.00    +0.145 C 
BRANCH   5   6
ATOM      6  N   GLU A   1     -15.075  -4.676  49.718  0.00  0.00    -0.238 NA
ATOM      7  H   GLU A   1     -15.236  -4.431  48.720  0.00  0.00    +0.142 HD
ENDBRANCH   5   6
BRANCH   5   8
ATOM      8  CB  GLU A   1     -17.112  -3.778  50.762  0.00  0.00    +0.038 C 
BRANCH   8   9
ATOM      9  CG  GLU A   1     -16.387  -2.581  51.365  0.00  0.00    +0.116 C 
BRANCH   9  10
ATOM     10  CD  GLU A   1     -15.538  -1.821  50.351  0.00  0.00    +0.365 C 
ATOM     11  OE2 GLU A   1     -14.361  -1.525  50.658  0.00  0.00    -0.246 OA
ATOM     12  OE1 GLU A   1     -16.041  -1.521  49.243  0.00  0.00    -0.246 OA
ENDBRANCH   9  10
ENDBRANCH   8   9
ENDBRANCH   5   8
ENDBRANCH   1   5
BRANCH   2  13
ATOM     13  CA  ASN A   2     -18.819  -7.808  50.342  0.00  0.00    +0.146 C 
BRANCH  13  14
ATOM     14  C   ASN A   2     -18.013  -8.941  49.721  0.00  0.00    +0.227 C 
ATOM     15  O   ASN A   2     -18.372  -9.470  48.676  0.00  0.00    -0.286 OA
ENDBRANCH  13  14
BRANCH  13  16
ATOM     16  CB  ASN A   2     -19.933  -7.360  49.384  0.00  0.00    +0.112 C 
BRANCH  16  17
ATOM     17  CG  ASN A   2     -20.905  -6.363  50.021  0.00  0.00    +0.222 C 
ATOM     18  ND2 ASN A   2     -21.171  -6.517  51.312  0.00  0.00    -0.329 N 
ATOM     19 HD21 ASN A   2     -20.712  -7.279  51.850  0.00  0.00    +0.145 HD
ATOM     20 HD22 ASN A   2     -21.839  -5.875  51.786  0.00  0.00    +0.145 HD
ATOM     21  OD1 ASN A   2     -21.421  -5.479  49.343  0.00  0.00    -0.275 OA
ENDBRANCH  16  17
ENDBRANCH  13  16
ENDBRANCH   2  13
TORSDOF 9
REMARK  Name = ../refined-set-2016/3cd0/3cd0_pocket.pdb
REMARK  247 active torsions:
REMARK  status: ('A' for Active; 'I' for Inactive)
REMARK    1  A    between atoms: _1  and  _3
REMARK    2  A    between atoms: _3  and  _4
REMARK    3  A    between atoms: _3  and  _6
REMARK    4  A    between atoms: _6  and  _7
REMARK    5  A    between atoms: _10  and  _12
REMARK    6  A    between atoms: _12  and  _13
REMARK    7  A    between atoms: _12  and  _15
REMARK    8  A    between atoms: _15  and  _16
REMARK    9  A    between atoms: _16  and  _17
REMARK   10  A    between atoms: _20  and  _22
REMARK   11  A    between atoms: _22  and  _23
REMARK   12  A    between atoms: _25  and  _27
REMARK   13  A    between atoms: _27  and  _28
REMARK   14  A    between atoms: _27  and  _30
REMARK   15  A    between atoms: _32  and  _34
REMARK   16  A    between atoms: _34  and  _35
REMARK   17  A    between atoms: _34  and  _37
REMARK   18  A    between atoms: _37  and  _38
REMARK   19  A    between atoms: _41  and  _43
REMARK   20  A    between atoms: _43  and  _44
REMARK   21  A    between atoms: _43  and  _46
REMARK   22  A    between atoms: _49  and  _51
REMARK   23  A    between atoms: _51  and  _52
REMARK   24  A    between atoms: _55  and  _57
REMARK   25  A    between atoms: _57  and  _58
REMARK   26  A    between atoms: _57  and  _60
REMARK   27  A    between atoms: _60  and  _61
REMARK   28  A    between atoms: _63  and  _65
REMARK   29  A    between atoms: _65  and  _66
REMARK   30  A    between atoms: _65  and  _68
REMARK   31  A    between atoms: _68  and  _69
REMARK   32  A    between atoms: _72  and  _74
REMARK   33  A    between atoms: _74  and  _75
REMARK   34  A    between atoms: _74  and  _77
REMARK   35  A    between atoms: _77  and  _78
REMARK   36  A    between atoms: _83  and  _85
REMARK   37  A    between atoms: _85  and  _86
REMARK   38  A    between atoms: _85  and  _88
REMARK   39  A    between atoms: _88  and  _89
REMARK   40  A    between atoms: _89  and  _90
REMARK   41  A    between atoms: _90  and  _91
REMARK   42  A    between atoms: _100  and  _102
REMARK   43  A    between atoms: _102  and  _103
REMARK   44  A    between atoms: _105  and  _107
REMARK   45  A    between atoms: _107  and  _108
REMARK   46  A    between atoms: _107  and  _110
REMARK   47  A    between atoms: _113  and  _115
REMARK   48  A    between atoms: _115  and  _116
REMARK   49  A    between atoms: _115  and  _118
REMARK   50  A    between atoms: _118  and  _119
REMARK   51  A    between atoms: _122  and  _124
REMARK   52  A    between atoms: _124  and  _125
REMARK   53  A    between atoms: _124  and  _127
REMARK   54  A    between atoms: _127  and  _128
REMARK   55  A    between atoms: _128  and  _129
REMARK   56  A    between atoms: _129  and  _130
REMARK   57  A    between atoms: _130  and  _131
REMARK   58  A    between atoms: _135  and  _137
REMARK   59  A    between atoms: _137  and  _138
REMARK   60  A    between atoms: _137  and  _140
REMARK   61  A    between atoms: _140  and  _141
REMARK   62  A    between atoms: _141  and  _142
REMARK   63  A    between atoms: _142  and  _143
REMARK   64  A    between atoms: _143  and  _144
REMARK   65  A    between atoms: _148  and  _150
REMARK   66  A    between atoms: _150  and  _151
REMARK   67  A    between atoms: _150  and  _153
REMARK   68  A    between atoms: _153  and  _154
REMARK   69  A    between atoms: _159  and  _161
REMARK   70  A    between atoms: _161  and  _162
REMARK   71  A    between atoms: _161  and  _164
REMARK   72  A    between atoms: _164  and  _165
REMARK   73  A    between atoms: _170  and  _172
REMARK   74  A    between atoms: _172  and  _173
REMARK   75  A    between atoms: _176  and  _178
REMARK   76  A    between atoms: _178  and  _179
REMARK   77  A    between atoms: _178  and  _181
REMARK   78  A    between atoms: _181  and  _182
REMARK   79  A    between atoms: _187  and  _189
REMARK   80  A    between atoms: _189  and  _190
REMARK   81  A    between atoms: _193  and  _195
REMARK   82  A    between atoms: _195  and  _196
REMARK   83  A    between atoms: _199  and  _201
REMARK   84  A    between atoms: _201  and  _202
REMARK   85  A    between atoms: _201  and  _204
REMARK   86  A    between atoms: _204  and  _205
REMARK   87  A    between atoms: _210  and  _212
REMARK   88  A    between atoms: _212  and  _213
REMARK   89  A    between atoms: _212  and  _215
REMARK   90  A    between atoms: _215  and  _216
REMARK   91  A    between atoms: _219  and  _221
REMARK   92  A    between atoms: _221  and  _222
REMARK   93  A    between atoms: _224  and  _226
REMARK   94  A    between atoms: _226  and  _227
REMARK   95  A    between atoms: _226  and  _229
REMARK   96  A    between atoms: _229  and  _230
REMARK   97  A    between atoms: _230  and  _231
REMARK   98  A    between atoms: _234  and  _236
REMARK   99  A    between atoms: _236  and  _237
REMARK  100  A    between atoms: _236  and  _239
REMARK  101  A    between atoms: _239  and  _240
REMARK  102  A    between atoms: _243  and  _245
REMARK  103  A    between atoms: _245  and  _246
REMARK  104  A    between atoms: _245  and  _248
REMARK  105  A    between atoms: _248  and  _249
REMARK  106  A    between atoms: _251  and  _253
REMARK  107  A    between atoms: _253  and  _254
REMARK  108  A    between atoms: _253  and  _256
REMARK  109  A    between atoms: _256  and  _257
REMARK  110  A    between atoms: _260  and  _262
REMARK  111  A    between atoms: _262  and  _263
REMARK  112  A    between atoms: _262  and  _265
REMARK  113  A    between atoms: _265  and  _266
REMARK  114  A    between atoms: _266  and  _267
REMARK  115  A    between atoms: _269  and  _271
REMARK  116  A    between atoms: _271  and  _272
REMARK  117  A    between atoms: _275  and  _277
REMARK  118  A    between atoms: _277  and  _278
REMARK  119  A    between atoms: _281  and  _283
REMARK  120  A    between atoms: _283  and  _284
REMARK  121  A    between atoms: _283  and  _286
REMARK  122  A    between atoms: _286  and  _287
REMARK  123  A    between atoms: _290  and  _292
REMARK  124  A    between atoms: _292  and  _293
REMARK  125  A    between atoms: _292  and  _295
REMARK  126  A    between atoms: _295  and  _296
REMARK  127  A    between atoms: _301  and  _303
REMARK  128  A    between atoms: _303  and  _304
REMARK  129  A    between atoms: _303  and  _306
REMARK  130  A    between atoms: _306  and  _307
REMARK  131  A    between atoms: _307  and  _308
REMARK  132  A    between atoms: _311  and  _313
REMARK  133  A    between atoms: _313  and  _314
REMARK  134  A    between atoms: _313  and  _316
REMARK  135  A    between atoms: _316  and  _317
REMARK  136  A    between atoms: _322  and  _324
REMARK  137  A    between atoms: _324  and  _325
REMARK  138  A    between atoms: _324  and  _327
REMARK  139  A    between atoms: _327  and  _328
REMARK  140  A    between atoms: _331  and  _333
REMARK  141  A    between atoms: _333  and  _334
REMARK  142  A    between atoms: _333  and  _336
REMARK  143  A    between atoms: _336  and  _337
REMARK  144  A    between atoms: _337  and  _338
REMARK  145  A    between atoms: _338  and  _339
REMARK  146  A    between atoms: _348  and  _350
REMARK  147  A    between atoms: _350  and  _351
REMARK  148  A    between atoms: _353  and  _355
REMARK  149  A    between atoms: _355  and  _356
REMARK  150  A    between atoms: _355  and  _358
REMARK  151  A    between atoms: _358  and  _359
REMARK  152  A    between atoms: _359  and  _360
REMARK  153  A    between atoms: _362  and  _364
REMARK  154  A    between atoms: _364  and  _365
REMARK  155  A    between atoms: _364  and  _367
REMARK  156  A    between atoms: _367  and  _368
REMARK  157  A    between atoms: _368  and  _369
REMARK  158  A    between atoms: _371  and  _373
REMARK  159  A    between atoms: _373  and  _374
REMARK  160  A    between atoms: _373  and  _376
REMARK  161  A    between atoms: _376  and  _377
REMARK  162  A    between atoms: _382  and  _384
REMARK  163  A    between atoms: _384  and  _385
REMARK  164  A    between atoms: _384  and  _387
REMARK  165  A    between atoms: _387  and  _388
REMARK  166  A    between atoms: _391  and  _393
REMARK  167  A    between atoms: _393  and  _394
REMARK  168  A    between atoms: _393  and  _396
REMARK  169  A    between atoms: _396  and  _397
REMARK  170  A    between atoms: _399  and  _401
REMARK  171  A    between atoms: _401  and  _402
REMARK  172  A    between atoms: _401  and  _404
REMARK  173  A    between atoms: _404  and  _405
REMARK  174  A    between atoms: _405  and  _406
REMARK  175  A    between atoms: _406  and  _407
REMARK  176  A    between atoms: _407  and  _408
REMARK  177  A    between atoms: _412  and  _414
REMARK  178  A    between atoms: _414  and  _415
REMARK  179  A    between atoms: _414  and  _417
REMARK  180  A    between atoms: _417  and  _418
REMARK  181  A    between atoms: _421  and  _423
REMARK  182  A    between atoms: _423  and  _424
REMARK  183  A    between atoms: _423  and  _426
REMARK  184  A    between atoms: _426  and  _427
REMARK  185  A    between atoms: _427  and  _428
REMARK  186  A    between atoms: _431  and  _433
REMARK  187  A    between atoms: _433  and  _434
REMARK  188  A    between atoms: _437  and  _439
REMARK  189  A    between atoms: _439  and  _440
REMARK  190  A    between atoms: _439  and  _442
REMARK  191  A    between atoms: _445  and  _447
REMARK  192  A    between atoms: _447  and  _448
REMARK  193  A    between atoms: _447  and  _450
REMARK  194  A    between atoms: _450  and  _451
REMARK  195  A    between atoms: _453  and  _455
REMARK  196  A    between atoms: _455  and  _456
REMARK  197  A    between atoms: _458  and  _460
REMARK  198  A    between atoms: _460  and  _461
REMARK  199  A    between atoms: _460  and  _463
REMARK  200  A    between atoms: _463  and  _464
REMARK  201  A    between atoms: _469  and  _471
REMARK  202  A    between atoms: _471  and  _472
REMARK  203  A    between atoms: _471  and  _474
REMARK  204  A    between atoms: _474  and  _475
REMARK  205  A    between atoms: _480  and  _481
REMARK  206  A    between atoms: _483  and  _485
REMARK  207  A    between atoms: _485  and  _486
REMARK  208  A    between atoms: _485  and  _488
REMARK  209  A    between atoms: _490  and  _492
REMARK  210  A    between atoms: _492  and  _493
REMARK  211  A    between atoms: _492  and  _495
REMARK  212  A    between atoms: _495  and  _496
REMARK  213  A    between atoms: _499  and  _501
REMARK  214  A    between atoms: _501  and  _502
REMARK  215  A    between atoms: _501  and  _504
REMARK  216  A    between atoms: _504  and  _505
REMARK  217  A    between atoms: _508  and  _510
REMARK  218  A    between atoms: _510  and  _511
REMARK  219  A    between atoms: _510  and  _513
REMARK  220  A    between atoms: _513  and  _514
REMARK  221  A    between atoms: _514  and  _515
REMARK  222  A    between atoms: _515  and  _516
REMARK  223  A    between atoms: _516  and  _517
REMARK  224  A    between atoms: _521  and  _523
REMARK  225  A    between atoms: _523  and  _524
REMARK  226  A    between atoms: _523  and  _526
REMARK  227  A    between atoms: _526  and  _527
REMARK  228  A    between atoms: _527  and  _528
REMARK  229  A    between atoms: _528  and  _529
REMARK  230  A    between atoms: _529  and  _530
REMARK  231  A    between atoms: _534  and  _536
REMARK  232  A    between atoms: _536  and  _537
REMARK  233  A    between atoms: _536  and  _539
REMARK  234  A    between atoms: _539  and  _540
REMARK  235  A    between atoms: _540  and  _541
REMARK  236  A    between atoms: _541  and  _542
REMARK  237  A    between atoms: _551  and  _553
REMARK  238  A    between atoms: _553  and  _554
REMARK  239  A    between atoms: _553  and  _556
REMARK  240  A    between atoms: _556  and  _557
REMARK  241  A    between atoms: _560  and  _562
REMARK  242  A    between atoms: _562  and  _563
REMARK  243  A    between atoms: _566  and  _568
REMARK  244  A    between atoms: _568  and  _569
REMARK  245  A    between atoms: _568  and  _571
REMARK  246  A    between atoms: _571  and  _572
REMARK  247  A    between atoms: _572  and  _573
REMARK                            x       y       z     vdW  Elec       q    Type
REMARK                         _______ _______ _______ _____ _____    ______ ____
ROOT
ATOM      1  CA  ARG A   2      -7.624  17.086  41.500  0.00  0.00    +0.149 C 
ENDROOT
BRANCH   1   3
ATOM      2  C   THR A   1      -5.507  16.039  40.888  0.00  0.00    +0.241 C 
ATOM      3  N   ARG A   2      -6.203  17.105  41.259  0.00  0.00    -0.297 N 
ATOM      4  H   ARG A   2      -5.696  18.004  41.383  0.00  0.00    +0.150 HD
ATOM      5  O   THR A   1      -5.942  14.891  40.904  0.00  0.00    -0.274 OA
BRANCH   2   6
ATOM      6  CA  THR A   1      -4.094  16.360  40.432  0.00  0.00    +0.172 C 
BRANCH   6   7
ATOM      7  N   THR A   1      -3.186  15.219  40.450  0.00  0.00    -0.236 NA
ATOM      8  H   THR A   1      -3.475  14.326  40.002  0.00  0.00    +0.142 HD
ENDBRANCH   6   7
BRANCH   6   9
ATOM      9  CB  THR A   1      -4.175  16.997  39.027  0.00  0.00    +0.135 C 
ATOM     10  CG2 THR A   1      -2.801  17.242  38.435  0.00  0.00    +0.034 C 
BRANCH   9  11
ATOM     11  OG1 THR A   1      -4.797  16.088  38.120  0.00  0.00    -0.383 OA
ATOM     12  HG1 THR A   1      -4.846  16.502  37.222  0.00  0.00    +0.210 HD
ENDBRANCH   9  11
ENDBRANCH   6   9
ENDBRANCH   2   6
ENDBRANCH   1   3
BRANCH   1  13
ATOM     13  C   ARG A   2      -8.195  18.384  40.923  0.00  0.00    +0.241 C 
ATOM     14  O   ARG A   2      -7.626  19.462  41.104  0.00  0.00    -0.273 OA
ATOM     15  N   GLY A   3      -9.326  18.267  40.239  0.00  0.00    -0.296 N 
ATOM     16  H   GLY A   3      -9.830  17.357  40.253  0.00  0.00    +0.150 HD
BRANCH  15  17
ATOM     17  CA  GLY A   3      -9.883  19.364  39.473  0.00  0.00    +0.163 C 
BRANCH  17  18
ATOM     18  C   GLY A   3     -11.331  19.605  39.843  0.00  0.00    +0.229 C 
ATOM     19  O   GLY A   3     -12.228  19.274  39.067  0.00  0.00    -0.286 OA
ENDBRANCH  17  18
ENDBRANCH  15  17
ENDBRANCH   1  13
BRANCH   1  20
ATOM     20  CB  ARG A   2      -7.895  16.977  42.991  0.00  0.00    +0.033 C 
BRANCH  20  21
ATOM     21  CG  ARG A   2      -9.365  16.895  43.362  0.00  0.00    +0.045 C 
BRANCH  21  22
ATOM     22  CD  ARG A   2      -9.838  15.501  43.715  0.00  0.00    +0.174 C 
BRANCH  22  23
ATOM     23  NE  ARG A   2     -10.239  14.756  42.531  0.00  0.00    -0.265 N 
ATOM     24  CZ  ARG A   2     -10.533  13.465  42.515  0.00  0.00    +0.342 C 
ATOM     25  NH2 ARG A   2     -10.494  12.733  43.625  0.00  0.00    -0.292 N 
ATOM     26 HH21 ARG A   2     -10.229  13.173  44.529  0.00  0.00    +0.255 HD
ATOM     27 HH22 ARG A   2     -10.729  11.721  43.589  0.00  0.00    +0.255 HD
ATOM     28  NH1 ARG A   2     -10.896  12.903  41.372  0.00  0.00    -0.292 N 
ATOM     29 HH11 ARG A   2     -11.130  11.890  41.342  0.00  0.00    +0.255 HD
ATOM     30 HH12 ARG A   2     -10.947  13.475  40.505  0.00  0.00    +0.255 HD
ATOM     31  HE  ARG A   2     -10.299  15.275  41.632  0.00  0.00    +0.259 HD
ENDBRANCH  22  23
ENDBRANCH  21  22
ENDBRANCH  20  21
ENDBRANCH   1  20
TORSDOF 12
REMARK  Name = ../refined-set-2016/3cd0/3cd0_pocket.pdb
REMARK  247 active torsions:
REMARK  status: ('A' for Active; 'I' for Inactive)
REMARK    1  A    between atoms: _1  and  _3
REMARK    2  A    between atoms: _3  and  _4
REMARK    3  A    between atoms: _3  and  _6
REMARK    4  A    between atoms: _6  and  _7
REMARK    5  A    between atoms: _10  and  _12
REMARK    6  A    between atoms: _12  and  _13
REMARK    7  A    between atoms: _12  and  _15
REMARK    8  A    between atoms: _15  and  _16
REMARK    9  A    between atoms: _16  and  _17
REMARK   10  A    between atoms: _20  and  _22
REMARK   11  A    between atoms: _22  and  _23
REMARK   12  A    between atoms: _25  and  _27
REMARK   13  A    between atoms: _27  and  _28
REMARK   14  A    between atoms: _27  and  _30
REMARK   15  A    between atoms: _32  and  _34
REMARK   16  A    between atoms: _34  and  _35
REMARK   17  A    between atoms: _34  and  _37
REMARK   18  A    between atoms: _37  and  _38
REMARK   19  A    between atoms: _41  and  _43
REMARK   20  A    between atoms: _43  and  _44
REMARK   21  A    between atoms: _43  and  _46
REMARK   22  A    between atoms: _49  and  _51
REMARK   23  A    between atoms: _51  and  _52
REMARK   24  A    between atoms: _55  and  _57
REMARK   25  A    between atoms: _57  and  _58
REMARK   26  A    between atoms: _57  and  _60
REMARK   27  A    between atoms: _60  and  _61
REMARK   28  A    between atoms: _63  and  _65
REMARK   29  A    between atoms: _65  and  _66
REMARK   30  A    between atoms: _65  and  _68
REMARK   31  A    between atoms: _68  and  _69
REMARK   32  A    between atoms: _72  and  _74
REMARK   33  A    between atoms: _74  and  _75
REMARK   34  A    between atoms: _74  and  _77
REMARK   35  A    between atoms: _77  and  _78
REMARK   36  A    between atoms: _83  and  _85
REMARK   37  A    between atoms: _85  and  _86
REMARK   38  A    between atoms: _85  and  _88
REMARK   39  A    between atoms: _88  and  _89
REMARK   40  A    between atoms: _89  and  _90
REMARK   41  A    between atoms: _90  and  _91
REMARK   42  A    between atoms: _100  and  _102
REMARK   43  A    between atoms: _102  and  _103
REMARK   44  A    between atoms: _105  and  _107
REMARK   45  A    between atoms: _107  and  _108
REMARK   46  A    between atoms: _107  and  _110
REMARK   47  A    between atoms: _113  and  _115
REMARK   48  A    between atoms: _115  and  _116
REMARK   49  A    between atoms: _115  and  _118
REMARK   50  A    between atoms: _118  and  _119
REMARK   51  A    between atoms: _122  and  _124
REMARK   52  A    between atoms: _124  and  _125
REMARK   53  A    between atoms: _124  and  _127
REMARK   54  A    between atoms: _127  and  _128
REMARK   55  A    between atoms: _128  and  _129
REMARK   56  A    between atoms: _129  and  _130
REMARK   57  A    between atoms: _130  and  _131
REMARK   58  A    between atoms: _135  and  _137
REMARK   59  A    between atoms: _137  and  _138
REMARK   60  A    between atoms: _137  and  _140
REMARK   61  A    between atoms: _140  and  _141
REMARK   62  A    between atoms: _141  and  _142
REMARK   63  A    between atoms: _142  and  _143
REMARK   64  A    between atoms: _143  and  _144
REMARK   65  A    between atoms: _148  and  _150
REMARK   66  A    between atoms: _150  and  _151
REMARK   67  A    between atoms: _150  and  _153
REMARK   68  A    between atoms: _153  and  _154
REMARK   69  A    between atoms: _159  and  _161
REMARK   70  A    between atoms: _161  and  _162
REMARK   71  A    between atoms: _161  and  _164
REMARK   72  A    between atoms: _164  and  _165
REMARK   73  A    between atoms: _170  and  _172
REMARK   74  A    between atoms: _172  and  _173
REMARK   75  A    between atoms: _176  and  _178
REMARK   76  A    between atoms: _178  and  _179
REMARK   77  A    between atoms: _178  and  _181
REMARK   78  A    between atoms: _181  and  _182
REMARK   79  A    between atoms: _187  and  _189
REMARK   80  A    between atoms: _189  and  _190
REMARK   81  A    between atoms: _193  and  _195
REMARK   82  A    between atoms: _195  and  _196
REMARK   83  A    between atoms: _199  and  _201
REMARK   84  A    between atoms: _201  and  _202
REMARK   85  A    between atoms: _201  and  _204
REMARK   86  A    between atoms: _204  and  _205
REMARK   87  A    between atoms: _210  and  _212
REMARK   88  A    between atoms: _212  and  _213
REMARK   89  A    between atoms: _212  and  _215
REMARK   90  A    between atoms: _215  and  _216
REMARK   91  A    between atoms: _219  and  _221
REMARK   92  A    between atoms: _221  and  _222
REMARK   93  A    between atoms: _224  and  _226
REMARK   94  A    between atoms: _226  and  _227
REMARK   95  A    between atoms: _226  and  _229
REMARK   96  A    between atoms: _229  and  _230
REMARK   97  A    between atoms: _230  and  _231
REMARK   98  A    between atoms: _234  and  _236
REMARK   99  A    between atoms: _236  and  _237
REMARK  100  A    between atoms: _236  and  _239
REMARK  101  A    between atoms: _239  and  _240
REMARK  102  A    between atoms: _243  and  _245
REMARK  103  A    between atoms: _245  and  _246
REMARK  104  A    between atoms: _245  and  _248
REMARK  105  A    between atoms: _248  and  _249
REMARK  106  A    between atoms: _251  and  _253
REMARK  107  A    between atoms: _253  and  _254
REMARK  108  A    between atoms: _253  and  _256
REMARK  109  A    between atoms: _256  and  _257
REMARK  110  A    between atoms: _260  and  _262
REMARK  111  A    between atoms: _262  and  _263
REMARK  112  A    between atoms: _262  and  _265
REMARK  113  A    between atoms: _265  and  _266
REMARK  114  A    between atoms: _266  and  _267
REMARK  115  A    between atoms: _269  and  _271
REMARK  116  A    between atoms: _271  and  _272
REMARK  117  A    between atoms: _275  and  _277
REMARK  118  A    between atoms: _277  and  _278
REMARK  119  A    between atoms: _281  and  _283
REMARK  120  A    between atoms: _283  and  _284
REMARK  121  A    between atoms: _283  and  _286
REMARK  122  A    between atoms: _286  and  _287
REMARK  123  A    between atoms: _290  and  _292
REMARK  124  A    between atoms: _292  and  _293
REMARK  125  A    between atoms: _292  and  _295
REMARK  126  A    between atoms: _295  and  _296
REMARK  127  A    between atoms: _301  and  _303
REMARK  128  A    between atoms: _303  and  _304
REMARK  129  A    between atoms: _303  and  _306
REMARK  130  A    between atoms: _306  and  _307
REMARK  131  A    between atoms: _307  and  _308
REMARK  132  A    between atoms: _311  and  _313
REMARK  133  A    between atoms: _313  and  _314
REMARK  134  A    between atoms: _313  and  _316
REMARK  135  A    between atoms: _316  and  _317
REMARK  136  A    between atoms: _322  and  _324
REMARK  137  A    between atoms: _324  and  _325
REMARK  138  A    between atoms: _324  and  _327
REMARK  139  A    between atoms: _327  and  _328
REMARK  140  A    between atoms: _331  and  _333
REMARK  141  A    between atoms: _333  and  _334
REMARK  142  A    between atoms: _333  and  _336
REMARK  143  A    between atoms: _336  and  _337
REMARK  144  A    between atoms: _337  and  _338
REMARK  145  A    between atoms: _338  and  _339
REMARK  146  A    between atoms: _348  and  _350
REMARK  147  A    between atoms: _350  and  _351
REMARK  148  A    between atoms: _353  and  _355
REMARK  149  A    between atoms: _355  and  _356
REMARK  150  A    between atoms: _355  and  _358
REMARK  151  A    between atoms: _358  and  _359
REMARK  152  A    between atoms: _359  and  _360
REMARK  153  A    between atoms: _362  and  _364
REMARK  154  A    between atoms: _364  and  _365
REMARK  155  A    between atoms: _364  and  _367
REMARK  156  A    between atoms: _367  and  _368
REMARK  157  A    between atoms: _368  and  _369
REMARK  158  A    between atoms: _371  and  _373
REMARK  159  A    between atoms: _373  and  _374
REMARK  160  A    between atoms: _373  and  _376
REMARK  161  A    between atoms: _376  and  _377
REMARK  162  A    between atoms: _382  and  _384
REMARK  163  A    between atoms: _384  and  _385
REMARK  164  A    between atoms: _384  and  _387
REMARK  165  A    between atoms: _387  and  _388
REMARK  166  A    between atoms: _391  and  _393
REMARK  167  A    between atoms: _393  and  _394
REMARK  168  A    between atoms: _393  and  _396
REMARK  169  A    between atoms: _396  and  _397
REMARK  170  A    between atoms: _399  and  _401
REMARK  171  A    between atoms: _401  and  _402
REMARK  172  A    between atoms: _401  and  _404
REMARK  173  A    between atoms: _404  and  _405
REMARK  174  A    between atoms: _405  and  _406
REMARK  175  A    between atoms: _406  and  _407
REMARK  176  A    between atoms: _407  and  _408
REMARK  177  A    between atoms: _412  and  _414
REMARK  178  A    between atoms: _414  and  _415
REMARK  179  A    between atoms: _414  and  _417
REMARK  180  A    between atoms: _417  and  _418
REMARK  181  A    between atoms: _421  and  _423
REMARK  182  A    between atoms: _423  and  _424
REMARK  183  A    between atoms: _423  and  _426
REMARK  184  A    between atoms: _426  and  _427
REMARK  185  A    between atoms: _427  and  _428
REMARK  186  A    between atoms: _431  and  _433
REMARK  187  A    between atoms: _433  and  _434
REMARK  188  A    between atoms: _437  and  _439
REMARK  189  A    between atoms: _439  and  _440
REMARK  190  A    between atoms: _439  and  _442
REMARK  191  A    between atoms: _445  and  _447
REMARK  192  A    between atoms: _447  and  _448
REMARK  193  A    between atoms: _447  and  _450
REMARK  194  A    between atoms: _450  and  _451
REMARK  195  A    between atoms: _453  and  _455
REMARK  196  A    between atoms: _455  and  _456
REMARK  197  A    between atoms: _458  and  _460
REMARK  198  A    between atoms: _460  and  _461
REMARK  199  A    between atoms: _460  and  _463
REMARK  200  A    between atoms: _463  and  _464
REMARK  201  A    between atoms: _469  and  _471
REMARK  202  A    between atoms: _471  and  _472
REMARK  203  A    between atoms: _471  and  _474
REMARK  204  A    between atoms: _474  and  _475
REMARK  205  A    between atoms: _480  and  _481
REMARK  206  A    between atoms: _483  and  _485
REMARK  207  A    between atoms: _485  and  _486
REMARK  208  A    between atoms: _485  and  _488
REMARK  209  A    between atoms: _490  and  _492
REMARK  210  A    between atoms: _492  and  _493
REMARK  211  A    between atoms: _492  and  _495
REMARK  212  A    between atoms: _495  and  _496
REMARK  213  A    between atoms: _499  and  _501
REMARK  214  A    between atoms: _501  and  _502
REMARK  215  A    between atoms: _501  and  _504
REMARK  216  A    between atoms: _504  and  _505
REMARK  217  A    between atoms: _508  and  _510
REMARK  218  A    between atoms: _510  and  _511
REMARK  219  A    between atoms: _510  and  _513
REMARK  220  A    between atoms: _513  and  _514
REMARK  221  A    between atoms: _514  and  _515
REMARK  222  A    between atoms: _515  and  _516
REMARK  223  A    between atoms: _516  and  _517
REMARK  224  A    between atoms: _521  and  _523
REMARK  225  A    between atoms: _523  and  _524
REMARK  226  A    between atoms: _523  and  _526
REMARK  227  A    between atoms: _526  and  _527
REMARK  228  A    between atoms: _527  and  _528
REMARK  229  A    between atoms: _528  and  _529
REMARK  230  A    between atoms: _529  and  _530
REMARK  231  A    between atoms: _534  and  _536
REMARK  232  A    between atoms: _536  and  _537
REMARK  233  A    between atoms: _536  and  _539
REMARK  234  A    between atoms: _539  and  _540
REMARK  235  A    between atoms: _540  and  _541
REMARK  236  A    between atoms: _541  and  _542
REMARK  237  A    between atoms: _551  and  _553
REMARK  238  A    between atoms: _553  and  _554
REMARK  239  A    between atoms: _553  and  _556
REMARK  240  A    between atoms: _556  and  _557
REMARK  241  A    between atoms: _560  and  _562
REMARK  242  A    between atoms: _562  and  _563
REMARK  243  A    between atoms: _566  and  _568
REMARK  244  A    between atoms: _568  and  _569
REMARK  245  A    between atoms: _568  and  _571
REMARK  246  A    between atoms: _571  and  _572
REMARK  247  A    between atoms: _572  and  _573
REMARK                            x       y       z     vdW  Elec       q    Type
REMARK                         _______ _______ _______ _____ _____    ______ ____
ROOT
ATOM      1  CA  MET A   1      -0.216   7.687  44.049  0.00  0.00    +0.134 C 
ENDROOT
BRANCH   1   2
ATOM      2  N   MET A   1       0.399   7.230  45.296  0.00  0.00    -0.239 NA
ATOM      3  H   MET A   1       0.046   6.364  45.751  0.00  0.00    +0.142 HD
ENDBRANCH   1   2
BRANCH   1   4
ATOM      4  C   MET A   1      -0.795   9.082  44.286  0.00  0.00    +0.224 C 
ATOM      5  O   MET A   1      -0.635   9.984  43.462  0.00  0.00    -0.287 OA
ENDBRANCH   1   4
BRANCH   1   6
ATOM      6  CB  MET A   1      -1.291   6.702  43.586  0.00  0.00    +0.037 C 
BRANCH   6   7
ATOM      7  CG  MET A   1      -1.905   7.019  42.233  0.00  0.00    +0.059 C 
BRANCH   7   8
ATOM      8  SD  MET A   1      -3.485   7.839  42.409  0.00  0.00    -0.139 S 
ATOM      9  CE  MET A   1      -4.521   6.478  43.055  0.00  0.00    +0.069 C 
ENDBRANCH   7   8
ENDBRANCH   6   7
ENDBRANCH   1   6
TORSDOF 5
REMARK  Name = ../refined-set-2016/3cd0/3cd0_pocket.pdb
REMARK  247 active torsions:
REMARK  status: ('A' for Active; 'I' for Inactive)
REMARK    1  A    between atoms: _1  and  _3
REMARK    2  A    between atoms: _3  and  _4
REMARK    3  A    between atoms: _3  and  _6
REMARK    4  A    between atoms: _6  and  _7
REMARK    5  A    between atoms: _10  and  _12
REMARK    6  A    between atoms: _12  and  _13
REMARK    7  A    between atoms: _12  and  _15
REMARK    8  A    between atoms: _15  and  _16
REMARK    9  A    between atoms: _16  and  _17
REMARK   10  A    between atoms: _20  and  _22
REMARK   11  A    between atoms: _22  and  _23
REMARK   12  A    between atoms: _25  and  _27
REMARK   13  A    between atoms: _27  and  _28
REMARK   14  A    between atoms: _27  and  _30
REMARK   15  A    between atoms: _32  and  _34
REMARK   16  A    between atoms: _34  and  _35
REMARK   17  A    between atoms: _34  and  _37
REMARK   18  A    between atoms: _37  and  _38
REMARK   19  A    between atoms: _41  and  _43
REMARK   20  A    between atoms: _43  and  _44
REMARK   21  A    between atoms: _43  and  _46
REMARK   22  A    between atoms: _49  and  _51
REMARK   23  A    between atoms: _51  and  _52
REMARK   24  A    between atoms: _55  and  _57
REMARK   25  A    between atoms: _57  and  _58
REMARK   26  A    between atoms: _57  and  _60
REMARK   27  A    between atoms: _60  and  _61
REMARK   28  A    between atoms: _63  and  _65
REMARK   29  A    between atoms: _65  and  _66
REMARK   30  A    between atoms: _65  and  _68
REMARK   31  A    between atoms: _68  and  _69
REMARK   32  A    between atoms: _72  and  _74
REMARK   33  A    between atoms: _74  and  _75
REMARK   34  A    between atoms: _74  and  _77
REMARK   35  A    between atoms: _77  and  _78
REMARK   36  A    between atoms: _83  and  _85
REMARK   37  A    between atoms: _85  and  _86
REMARK   38  A    between atoms: _85  and  _88
REMARK   39  A    between atoms: _88  and  _89
REMARK   40  A    between atoms: _89  and  _90
REMARK   41  A    between atoms: _90  and  _91
REMARK   42  A    between atoms: _100  and  _102
REMARK   43  A    between atoms: _102  and  _103
REMARK   44  A    between atoms: _105  and  _107
REMARK   45  A    between atoms: _107  and  _108
REMARK   46  A    between atoms: _107  and  _110
REMARK   47  A    between atoms: _113  and  _115
REMARK   48  A    between atoms: _115  and  _116
REMARK   49  A    between atoms: _115  and  _118
REMARK   50  A    between atoms: _118  and  _119
REMARK   51  A    between atoms: _122  and  _124
REMARK   52  A    between atoms: _124  and  _125
REMARK   53  A    between atoms: _124  and  _127
REMARK   54  A    between atoms: _127  and  _128
REMARK   55  A    between atoms: _128  and  _129
REMARK   56  A    between atoms: _129  and  _130
REMARK   57  A    between atoms: _130  and  _131
REMARK   58  A    between atoms: _135  and  _137
REMARK   59  A    between atoms: _137  and  _138
REMARK   60  A    between atoms: _137  and  _140
REMARK   61  A    between atoms: _140  and  _141
REMARK   62  A    between atoms: _141  and  _142
REMARK   63  A    between atoms: _142  and  _143
REMARK   64  A    between atoms: _143  and  _144
REMARK   65  A    between atoms: _148  and  _150
REMARK   66  A    between atoms: _150  and  _151
REMARK   67  A    between atoms: _150  and  _153
REMARK   68  A    between atoms: _153  and  _154
REMARK   69  A    between atoms: _159  and  _161
REMARK   70  A    between atoms: _161  and  _162
REMARK   71  A    between atoms: _161  and  _164
REMARK   72  A    between atoms: _164  and  _165
REMARK   73  A    between atoms: _170  and  _172
REMARK   74  A    between atoms: _172  and  _173
REMARK   75  A    between atoms: _176  and  _178
REMARK   76  A    between atoms: _178  and  _179
REMARK   77  A    between atoms: _178  and  _181
REMARK   78  A    between atoms: _181  and  _182
REMARK   79  A    between atoms: _187  and  _189
REMARK   80  A    between atoms: _189  and  _190
REMARK   81  A    between atoms: _193  and  _195
REMARK   82  A    between atoms: _195  and  _196
REMARK   83  A    between atoms: _199  and  _201
REMARK   84  A    between atoms: _201  and  _202
REMARK   85  A    between atoms: _201  and  _204
REMARK   86  A    between atoms: _204  and  _205
REMARK   87  A    between atoms: _210  and  _212
REMARK   88  A    between atoms: _212  and  _213
REMARK   89  A    between atoms: _212  and  _215
REMARK   90  A    between atoms: _215  and  _216
REMARK   91  A    between atoms: _219  and  _221
REMARK   92  A    between atoms: _221  and  _222
REMARK   93  A    between atoms: _224  and  _226
REMARK   94  A    between atoms: _226  and  _227
REMARK   95  A    between atoms: _226  and  _229
REMARK   96  A    between atoms: _229  and  _230
REMARK   97  A    between atoms: _230  and  _231
REMARK   98  A    between atoms: _234  and  _236
REMARK   99  A    between atoms: _236  and  _237
REMARK  100  A    between atoms: _236  and  _239
REMARK  101  A    between atoms: _239  and  _240
REMARK  102  A    between atoms: _243  and  _245
REMARK  103  A    between atoms: _245  and  _246
REMARK  104  A    between atoms: _245  and  _248
REMARK  105  A    between atoms: _248  and  _249
REMARK  106  A    between atoms: _251  and  _253
REMARK  107  A    between atoms: _253  and  _254
REMARK  108  A    between atoms: _253  and  _256
REMARK  109  A    between atoms: _256  and  _257
REMARK  110  A    between atoms: _260  and  _262
REMARK  111  A    between atoms: _262  and  _263
REMARK  112  A    between atoms: _262  and  _265
REMARK  113  A    between atoms: _265  and  _266
REMARK  114  A    between atoms: _266  and  _267
REMARK  115  A    between atoms: _269  and  _271
REMARK  116  A    between atoms: _271  and  _272
REMARK  117  A    between atoms: _275  and  _277
REMARK  118  A    between atoms: _277  and  _278
REMARK  119  A    between atoms: _281  and  _283
REMARK  120  A    between atoms: _283  and  _284
REMARK  121  A    between atoms: _283  and  _286
REMARK  122  A    between atoms: _286  and  _287
REMARK  123  A    between atoms: _290  and  _292
REMARK  124  A    between atoms: _292  and  _293
REMARK  125  A    between atoms: _292  and  _295
REMARK  126  A    between atoms: _295  and  _296
REMARK  127  A    between atoms: _301  and  _303
REMARK  128  A    between atoms: _303  and  _304
REMARK  129  A    between atoms: _303  and  _306
REMARK  130  A    between atoms: _306  and  _307
REMARK  131  A    between atoms: _307  and  _308
REMARK  132  A    between atoms: _311  and  _313
REMARK  133  A    between atoms: _313  and  _314
REMARK  134  A    between atoms: _313  and  _316
REMARK  135  A    between atoms: _316  and  _317
REMARK  136  A    between atoms: _322  and  _324
REMARK  137  A    between atoms: _324  and  _325
REMARK  138  A    between atoms: _324  and  _327
REMARK  139  A    between atoms: _327  and  _328
REMARK  140  A    between atoms: _331  and  _333
REMARK  141  A    between atoms: _333  and  _334
REMARK  142  A    between atoms: _333  and  _336
REMARK  143  A    between atoms: _336  and  _337
REMARK  144  A    between atoms: _337  and  _338
REMARK  145  A    between atoms: _338  and  _339
REMARK  146  A    between atoms: _348  and  _350
REMARK  147  A    between atoms: _350  and  _351
REMARK  148  A    between atoms: _353  and  _355
REMARK  149  A    between atoms: _355  and  _356
REMARK  150  A    between atoms: _355  and  _358
REMARK  151  A    between atoms: _358  and  _359
REMARK  152  A    between atoms: _359  and  _360
REMARK  153  A    between atoms: _362  and  _364
REMARK  154  A    between atoms: _364  and  _365
REMARK  155  A    between atoms: _364  and  _367
REMARK  156  A    between atoms: _367  and  _368
REMARK  157  A    between atoms: _368  and  _369
REMARK  158  A    between atoms: _371  and  _373
REMARK  159  A    between atoms: _373  and  _374
REMARK  160  A    between atoms: _373  and  _376
REMARK  161  A    between atoms: _376  and  _377
REMARK  162  A    between atoms: _382  and  _384
REMARK  163  A    between atoms: _384  and  _385
REMARK  164  A    between atoms: _384  and  _387
REMARK  165  A    between atoms: _387  and  _388
REMARK  166  A    between atoms: _391  and  _393
REMARK  167  A    between atoms: _393  and  _394
REMARK  168  A    between atoms: _393  and  _396
REMARK  169  A    between atoms: _396  and  _397
REMARK  170  A    between atoms: _399  and  _401
REMARK  171  A    between atoms: _401  and  _402
REMARK  172  A    between atoms: _401  and  _404
REMARK  173  A    between atoms: _404  and  _405
REMARK  174  A    between atoms: _405  and  _406
REMARK  175  A    between atoms: _406  and  _407
REMARK  176  A    between atoms: _407  and  _408
REMARK  177  A    between atoms: _412  and  _414
REMARK  178  A    between atoms: _414  and  _415
REMARK  179  A    between atoms: _414  and  _417
REMARK  180  A    between atoms: _417  and  _418
REMARK  181  A    between atoms: _421  and  _423
REMARK  182  A    between atoms: _423  and  _424
REMARK  183  A    between atoms: _423  and  _426
REMARK  184  A    between atoms: _426  and  _427
REMARK  185  A    between atoms: _427  and  _428
REMARK  186  A    between atoms: _431  and  _433
REMARK  187  A    between atoms: _433  and  _434
REMARK  188  A    between atoms: _437  and  _439
REMARK  189  A    between atoms: _439  and  _440
REMARK  190  A    between atoms: _439  and  _442
REMARK  191  A    between atoms: _445  and  _447
REMARK  192  A    between atoms: _447  and  _448
REMARK  193  A    between atoms: _447  and  _450
REMARK  194  A    between atoms: _450  and  _451
REMARK  195  A    between atoms: _453  and  _455
REMARK  196  A    between atoms: _455  and  _456
REMARK  197  A    between atoms: _458  and  _460
REMARK  198  A    between atoms: _460  and  _461
REMARK  199  A    between atoms: _460  and  _463
REMARK  200  A    between atoms: _463  and  _464
REMARK  201  A    between atoms: _469  and  _471
REMARK  202  A    between atoms: _471  and  _472
REMARK  203  A    between atoms: _471  and  _474
REMARK  204  A    between atoms: _474  and  _475
REMARK  205  A    between atoms: _480  and  _481
REMARK  206  A    between atoms: _483  and  _485
REMARK  207  A    between atoms: _485  and  _486
REMARK  208  A    between atoms: _485  and  _488
REMARK  209  A    between atoms: _490  and  _492
REMARK  210  A    between atoms: _492  and  _493
REMARK  211  A    between atoms: _492  and  _495
REMARK  212  A    between atoms: _495  and  _496
REMARK  213  A    between atoms: _499  and  _501
REMARK  214  A    between atoms: _501  and  _502
REMARK  215  A    between atoms: _501  and  _504
REMARK  216  A    between atoms: _504  and  _505
REMARK  217  A    between atoms: _508  and  _510
REMARK  218  A    between atoms: _510  and  _511
REMARK  219  A    between atoms: _510  and  _513
REMARK  220  A    between atoms: _513  and  _514
REMARK  221  A    between atoms: _514  and  _515
REMARK  222  A    between atoms: _515  and  _516
REMARK  223  A    between atoms: _516  and  _517
REMARK  224  A    between atoms: _521  and  _523
REMARK  225  A    between atoms: _523  and  _524
REMARK  226  A    between atoms: _523  and  _526
REMARK  227  A    between atoms: _526  and  _527
REMARK  228  A    between atoms: _527  and  _528
REMARK  229  A    between atoms: _528  and  _529
REMARK  230  A    between atoms: _529  and  _530
REMARK  231  A    between atoms: _534  and  _536
REMARK  232  A    between atoms: _536  and  _537
REMARK  233  A    between atoms: _536  and  _539
REMARK  234  A    between atoms: _539  and  _540
REMARK  235  A    between atoms: _540  and  _541
REMARK  236  A    between atoms: _541  and  _542
REMARK  237  A    between atoms: _551  and  _553
REMARK  238  A    between atoms: _553  and  _554
REMARK  239  A    between atoms: _553  and  _556
REMARK  240  A    between atoms: _556  and  _557
REMARK  241  A    between atoms: _560  and  _562
REMARK  242  A    between atoms: _562  and  _563
REMARK  243  A    between atoms: _566  and  _568
REMARK  244  A    between atoms: _568  and  _569
REMARK  245  A    between atoms: _568  and  _571
REMARK  246  A    between atoms: _571  and  _572
REMARK  247  A    between atoms: _572  and  _573
REMARK                            x       y       z     vdW  Elec       q    Type
REMARK                         _______ _______ _______ _____ _____    ______ ____
ROOT
ATOM      1  C   MET A   1      -6.002  11.279  46.592  0.00  0.00    +0.238 C 
ATOM      2  N   ASN A   2      -6.055  10.418  47.603  0.00  0.00    -0.298 N 
ATOM      3  H   ASN A   2      -5.733   9.441  47.447  0.00  0.00    +0.150 HD
ATOM      4  O   MET A   1      -6.287  12.464  46.688  0.00  0.00    -0.274 OA
ENDROOT
BRANCH   1   5
ATOM      5  CA  MET A   1      -5.533  10.715  45.268  0.00  0.00    +0.146 C 
BRANCH   5   6
ATOM      6  N   MET A   1      -4.157  10.235  45.415  0.00  0.00    -0.238 NA
ATOM      7  H   MET A   1      -3.938   9.228  45.272  0.00  0.00    +0.142 HD
ENDBRANCH   5   6
BRANCH   5   8
ATOM      8  CB  MET A   1      -6.508   9.612  44.833  0.00  0.00    +0.038 C 
BRANCH   8   9
ATOM      9  CG  MET A   1      -6.488   9.311  43.357  0.00  0.00    +0.060 C 
BRANCH   9  10
ATOM     10  SD  MET A   1      -6.635  10.749  42.286  0.00  0.00    -0.139 S 
ATOM     11  CE  MET A   1      -8.360  10.873  42.127  0.00  0.00    +0.069 C 
ENDBRANCH   9  10
ENDBRANCH   8   9
ENDBRANCH   5   8
ENDBRANCH   1   5
BRANCH   2  12
ATOM     12  CA  ASN A   2      -6.548  10.794  48.922  0.00  0.00    +0.146 C 
BRANCH  12  13
ATOM     13  C   ASN A   2      -5.828  11.999  49.518  0.00  0.00    +0.227 C 
ATOM     14  O   ASN A   2      -6.462  12.851  50.123  0.00  0.00    -0.286 OA
ENDBRANCH  12  13
BRANCH  12  15
ATOM     15  CB  ASN A   2      -6.461   9.603  49.882  0.00  0.00    +0.112 C 
BRANCH  15  16
ATOM     16  CG  ASN A   2      -7.413   8.481  49.500  0.00  0.00    +0.222 C 
ATOM     17  ND2 ASN A   2      -6.972   7.238  49.684  0.00  0.00    -0.329 N 
ATOM     18 HD21 ASN A   2      -6.024   7.076  50.080  0.00  0.00    +0.145 HD
ATOM     19 HD22 ASN A   2      -7.575   6.429  49.431  0.00  0.00    +0.145 HD
ATOM     20  OD1 ASN A   2      -8.530   8.731  49.033  0.00  0.00    -0.275 OA
ENDBRANCH  15  16
ENDBRANCH  12  15
ENDBRANCH   2  12
TORSDOF 9
REMARK  Name = ../refined-set-2016/3cd0/3cd0_pocket.pdb
REMARK  247 active torsions:
REMARK  status: ('A' for Active; 'I' for Inactive)
REMARK    1  A    between atoms: _1  and  _3
REMARK    2  A    between atoms: _3  and  _4
REMARK    3  A    between atoms: _3  and  _6
REMARK    4  A    between atoms: _6  and  _7
REMARK    5  A    between atoms: _10  and  _12
REMARK    6  A    between atoms: _12  and  _13
REMARK    7  A    between atoms: _12  and  _15
REMARK    8  A    between atoms: _15  and  _16
REMARK    9  A    between atoms: _16  and  _17
REMARK   10  A    between atoms: _20  and  _22
REMARK   11  A    between atoms: _22  and  _23
REMARK   12  A    between atoms: _25  and  _27
REMARK   13  A    between atoms: _27  and  _28
REMARK   14  A    between atoms: _27  and  _30
REMARK   15  A    between atoms: _32  and  _34
REMARK   16  A    between atoms: _34  and  _35
REMARK   17  A    between atoms: _34  and  _37
REMARK   18  A    between atoms: _37  and  _38
REMARK   19  A    between atoms: _41  and  _43
REMARK   20  A    between atoms: _43  and  _44
REMARK   21  A    between atoms: _43  and  _46
REMARK   22  A    between atoms: _49  and  _51
REMARK   23  A    between atoms: _51  and  _52
REMARK   24  A    between atoms: _55  and  _57
REMARK   25  A    between atoms: _57  and  _58
REMARK   26  A    between atoms: _57  and  _60
REMARK   27  A    between atoms: _60  and  _61
REMARK   28  A    between atoms: _63  and  _65
REMARK   29  A    between atoms: _65  and  _66
REMARK   30  A    between atoms: _65  and  _68
REMARK   31  A    between atoms: _68  and  _69
REMARK   32  A    between atoms: _72  and  _74
REMARK   33  A    between atoms: _74  and  _75
REMARK   34  A    between atoms: _74  and  _77
REMARK   35  A    between atoms: _77  and  _78
REMARK   36  A    between atoms: _83  and  _85
REMARK   37  A    between atoms: _85  and  _86
REMARK   38  A    between atoms: _85  and  _88
REMARK   39  A    between atoms: _88  and  _89
REMARK   40  A    between atoms: _89  and  _90
REMARK   41  A    between atoms: _90  and  _91
REMARK   42  A    between atoms: _100  and  _102
REMARK   43  A    between atoms: _102  and  _103
REMARK   44  A    between atoms: _105  and  _107
REMARK   45  A    between atoms: _107  and  _108
REMARK   46  A    between atoms: _107  and  _110
REMARK   47  A    between atoms: _113  and  _115
REMARK   48  A    between atoms: _115  and  _116
REMARK   49  A    between atoms: _115  and  _118
REMARK   50  A    between atoms: _118  and  _119
REMARK   51  A    between atoms: _122  and  _124
REMARK   52  A    between atoms: _124  and  _125
REMARK   53  A    between atoms: _124  and  _127
REMARK   54  A    between atoms: _127  and  _128
REMARK   55  A    between atoms: _128  and  _129
REMARK   56  A    between atoms: _129  and  _130
REMARK   57  A    between atoms: _130  and  _131
REMARK   58  A    between atoms: _135  and  _137
REMARK   59  A    between atoms: _137  and  _138
REMARK   60  A    between atoms: _137  and  _140
REMARK   61  A    between atoms: _140  and  _141
REMARK   62  A    between atoms: _141  and  _142
REMARK   63  A    between atoms: _142  and  _143
REMARK   64  A    between atoms: _143  and  _144
REMARK   65  A    between atoms: _148  and  _150
REMARK   66  A    between atoms: _150  and  _151
REMARK   67  A    between atoms: _150  and  _153
REMARK   68  A    between atoms: _153  and  _154
REMARK   69  A    between atoms: _159  and  _161
REMARK   70  A    between atoms: _161  and  _162
REMARK   71  A    between atoms: _161  and  _164
REMARK   72  A    between atoms: _164  and  _165
REMARK   73  A    between atoms: _170  and  _172
REMARK   74  A    between atoms: _172  and  _173
REMARK   75  A    between atoms: _176  and  _178
REMARK   76  A    between atoms: _178  and  _179
REMARK   77  A    between atoms: _178  and  _181
REMARK   78  A    between atoms: _181  and  _182
REMARK   79  A    between atoms: _187  and  _189
REMARK   80  A    between atoms: _189  and  _190
REMARK   81  A    between atoms: _193  and  _195
REMARK   82  A    between atoms: _195  and  _196
REMARK   83  A    between atoms: _199  and  _201
REMARK   84  A    between atoms: _201  and  _202
REMARK   85  A    between atoms: _201  and  _204
REMARK   86  A    between atoms: _204  and  _205
REMARK   87  A    between atoms: _210  and  _212
REMARK   88  A    between atoms: _212  and  _213
REMARK   89  A    between atoms: _212  and  _215
REMARK   90  A    between atoms: _215  and  _216
REMARK   91  A    between atoms: _219  and  _221
REMARK   92  A    between atoms: _221  and  _222
REMARK   93  A    between atoms: _224  and  _226
REMARK   94  A    between atoms: _226  and  _227
REMARK   95  A    between atoms: _226  and  _229
REMARK   96  A    between atoms: _229  and  _230
REMARK   97  A    between atoms: _230  and  _231
REMARK   98  A    between atoms: _234  and  _236
REMARK   99  A    between atoms: _236  and  _237
REMARK  100  A    between atoms: _236  and  _239
REMARK  101  A    between atoms: _239  and  _240
REMARK  102  A    between atoms: _243  and  _245
REMARK  103  A    between atoms: _245  and  _246
REMARK  104  A    between atoms: _245  and  _248
REMARK  105  A    between atoms: _248  and  _249
REMARK  106  A    between atoms: _251  and  _253
REMARK  107  A    between atoms: _253  and  _254
REMARK  108  A    between atoms: _253  and  _256
REMARK  109  A    between atoms: _256  and  _257
REMARK  110  A    between atoms: _260  and  _262
REMARK  111  A    between atoms: _262  and  _263
REMARK  112  A    between atoms: _262  and  _265
REMARK  113  A    between atoms: _265  and  _266
REMARK  114  A    between atoms: _266  and  _267
REMARK  115  A    between atoms: _269  and  _271
REMARK  116  A    between atoms: _271  and  _272
REMARK  117  A    between atoms: _275  and  _277
REMARK  118  A    between atoms: _277  and  _278
REMARK  119  A    between atoms: _281  and  _283
REMARK  120  A    between atoms: _283  and  _284
REMARK  121  A    between atoms: _283  and  _286
REMARK  122  A    between atoms: _286  and  _287
REMARK  123  A    between atoms: _290  and  _292
REMARK  124  A    between atoms: _292  and  _293
REMARK  125  A    between atoms: _292  and  _295
REMARK  126  A    between atoms: _295  and  _296
REMARK  127  A    between atoms: _301  and  _303
REMARK  128  A    between atoms: _303  and  _304
REMARK  129  A    between atoms: _303  and  _306
REMARK  130  A    between atoms: _306  and  _307
REMARK  131  A    between atoms: _307  and  _308
REMARK  132  A    between atoms: _311  and  _313
REMARK  133  A    between atoms: _313  and  _314
REMARK  134  A    between atoms: _313  and  _316
REMARK  135  A    between atoms: _316  and  _317
REMARK  136  A    between atoms: _322  and  _324
REMARK  137  A    between atoms: _324  and  _325
REMARK  138  A    between atoms: _324  and  _327
REMARK  139  A    between atoms: _327  and  _328
REMARK  140  A    between atoms: _331  and  _333
REMARK  141  A    between atoms: _333  and  _334
REMARK  142  A    between atoms: _333  and  _336
REMARK  143  A    between atoms: _336  and  _337
REMARK  144  A    between atoms: _337  and  _338
REMARK  145  A    between atoms: _338  and  _339
REMARK  146  A    between atoms: _348  and  _350
REMARK  147  A    between atoms: _350  and  _351
REMARK  148  A    between atoms: _353  and  _355
REMARK  149  A    between atoms: _355  and  _356
REMARK  150  A    between atoms: _355  and  _358
REMARK  151  A    between atoms: _358  and  _359
REMARK  152  A    between atoms: _359  and  _360
REMARK  153  A    between atoms: _362  and  _364
REMARK  154  A    between atoms: _364  and  _365
REMARK  155  A    between atoms: _364  and  _367
REMARK  156  A    between atoms: _367  and  _368
REMARK  157  A    between atoms: _368  and  _369
REMARK  158  A    between atoms: _371  and  _373
REMARK  159  A    between atoms: _373  and  _374
REMARK  160  A    between atoms: _373  and  _376
REMARK  161  A    between atoms: _376  and  _377
REMARK  162  A    between atoms: _382  and  _384
REMARK  163  A    between atoms: _384  and  _385
REMARK  164  A    between atoms: _384  and  _387
REMARK  165  A    between atoms: _387  and  _388
REMARK  166  A    between atoms: _391  and  _393
REMARK  167  A    between atoms: _393  and  _394
REMARK  168  A    between atoms: _393  and  _396
REMARK  169  A    between atoms: _396  and  _397
REMARK  170  A    between atoms: _399  and  _401
REMARK  171  A    between atoms: _401  and  _402
REMARK  172  A    between atoms: _401  and  _404
REMARK  173  A    between atoms: _404  and  _405
REMARK  174  A    between atoms: _405  and  _406
REMARK  175  A    between atoms: _406  and  _407
REMARK  176  A    between atoms: _407  and  _408
REMARK  177  A    between atoms: _412  and  _414
REMARK  178  A    between atoms: _414  and  _415
REMARK  179  A    between atoms: _414  and  _417
REMARK  180  A    between atoms: _417  and  _418
REMARK  181  A    between atoms: _421  and  _423
REMARK  182  A    between atoms: _423  and  _424
REMARK  183  A    between atoms: _423  and  _426
REMARK  184  A    between atoms: _426  and  _427
REMARK  185  A    between atoms: _427  and  _428
REMARK  186  A    between atoms: _431  and  _433
REMARK  187  A    between atoms: _433  and  _434
REMARK  188  A    between atoms: _437  and  _439
REMARK  189  A    between atoms: _439  and  _440
REMARK  190  A    between atoms: _439  and  _442
REMARK  191  A    between atoms: _445  and  _447
REMARK  192  A    between atoms: _447  and  _448
REMARK  193  A    between atoms: _447  and  _450
REMARK  194  A    between atoms: _450  and  _451
REMARK  195  A    between atoms: _453  and  _455
REMARK  196  A    between atoms: _455  and  _456
REMARK  197  A    between atoms: _458  and  _460
REMARK  198  A    between atoms: _460  and  _461
REMARK  199  A    between atoms: _460  and  _463
REMARK  200  A    between atoms: _463  and  _464
REMARK  201  A    between atoms: _469  and  _471
REMARK  202  A    between atoms: _471  and  _472
REMARK  203  A    between atoms: _471  and  _474
REMARK  204  A    between atoms: _474  and  _475
REMARK  205  A    between atoms: _480  and  _481
REMARK  206  A    between atoms: _483  and  _485
REMARK  207  A    between atoms: _485  and  _486
REMARK  208  A    between atoms: _485  and  _488
REMARK  209  A    between atoms: _490  and  _492
REMARK  210  A    between atoms: _492  and  _493
REMARK  211  A    between atoms: _492  and  _495
REMARK  212  A    between atoms: _495  and  _496
REMARK  213  A    between atoms: _499  and  _501
REMARK  214  A    between atoms: _501  and  _502
REMARK  215  A    between atoms: _501  and  _504
REMARK  216  A    between atoms: _504  and  _505
REMARK  217  A    between atoms: _508  and  _510
REMARK  218  A    between atoms: _510  and  _511
REMARK  219  A    between atoms: _510  and  _513
REMARK  220  A    between atoms: _513  and  _514
REMARK  221  A    between atoms: _514  and  _515
REMARK  222  A    between atoms: _515  and  _516
REMARK  223  A    between atoms: _516  and  _517
REMARK  224  A    between atoms: _521  and  _523
REMARK  225  A    between atoms: _523  and  _524
REMARK  226  A    between atoms: _523  and  _526
REMARK  227  A    between atoms: _526  and  _527
REMARK  228  A    between atoms: _527  and  _528
REMARK  229  A    between atoms: _528  and  _529
REMARK  230  A    between atoms: _529  and  _530
REMARK  231  A    between atoms: _534  and  _536
REMARK  232  A    between atoms: _536  and  _537
REMARK  233  A    between atoms: _536  and  _539
REMARK  234  A    between atoms: _539  and  _540
REMARK  235  A    between atoms: _540  and  _541
REMARK  236  A    between atoms: _541  and  _542
REMARK  237  A    between atoms: _551  and  _553
REMARK  238  A    between atoms: _553  and  _554
REMARK  239  A    between atoms: _553  and  _556
REMARK  240  A    between atoms: _556  and  _557
REMARK  241  A    between atoms: _560  and  _562
REMARK  242  A    between atoms: _562  and  _563
REMARK  243  A    between atoms: _566  and  _568
REMARK  244  A    between atoms: _568  and  _569
REMARK  245  A    between atoms: _568  and  _571
REMARK  246  A    between atoms: _571  and  _572
REMARK  247  A    between atoms: _572  and  _573
REMARK                            x       y       z     vdW  Elec       q    Type
REMARK                         _______ _______ _______ _____ _____    ______ ____
ROOT
ATOM      1  CA  SER A   2      -8.100  15.495  47.659  0.00  0.00    +0.178 C 
ENDROOT
BRANCH   1   3
ATOM      2  C   ILE A   1      -5.794  16.141  47.285  0.00  0.00    +0.238 C 
ATOM      3  N   SER A   2      -6.688  15.193  47.519  0.00  0.00    -0.295 N 
ATOM      4  H   SER A   2      -6.370  14.207  47.605  0.00  0.00    +0.150 HD
ATOM      5  O   ILE A   1      -6.084  17.331  47.241  0.00  0.00    -0.274 OA
BRANCH   2   6
ATOM      6  CA  ILE A   1      -4.353  15.681  47.065  0.00  0.00    +0.145 C 
BRANCH   6   7
ATOM      7  N   ILE A   1      -4.051  14.482  47.856  0.00  0.00    -0.238 NA
ATOM      8  H   ILE A   1      -3.859  13.591  47.356  0.00  0.00    +0.142 HD
ENDBRANCH   6   7
BRANCH   6   9
ATOM      9  CB  ILE A   1      -4.125  15.409  45.559  0.00  0.00    +0.025 C 
ATOM     10  CG2 ILE A   1      -4.604  16.586  44.700  0.00  0.00    +0.002 C 
BRANCH   9  11
ATOM     11  CG1 ILE A   1      -2.653  15.110  45.276  0.00  0.00    +0.002 C 
ATOM     12  CD1 ILE A   1      -1.764  16.299  45.304  0.00  0.00    +0.000 C 
ENDBRANCH   9  11
ENDBRANCH   6   9
ENDBRANCH   2   6
ENDBRANCH   1   3
BRANCH   1  13
ATOM     13  C   SER A   2      -8.358  16.143  49.019  0.00  0.00    +0.243 C 
ATOM     14  N   LYS A   3      -7.684  15.632  50.043  0.00  0.00    -0.298 N 
ATOM     15  H   LYS A   3      -7.081  14.803  49.871  0.00  0.00    +0.150 HD
ATOM     16  O   SER A   2      -9.134  17.088  49.126  0.00  0.00    -0.273 OA
BRANCH  14  17
ATOM     17  CA  LYS A   3      -7.746  16.173  51.395  0.00  0.00    +0.137 C 
BRANCH  17  18
ATOM     18  C   LYS A   3      -7.162  17.594  51.438  0.00  0.00    +0.227 C 
ATOM     19  O   LYS A   3      -7.695  18.466  52.113  0.00  0.00    -0.286 OA
ENDBRANCH  17  18
BRANCH  17  20
ATOM     20  CB  LYS A   3      -6.990  15.238  52.345  0.00  0.00    +0.028 C 
BRANCH  20  21
ATOM     21  CG  LYS A   3      -7.087  15.566  53.831  0.00  0.00    -0.000 C 
BRANCH  21  22
ATOM     22  CD  LYS A   3      -6.530  14.404  54.678  0.00  0.00    -0.024 C 
BRANCH  22  23
ATOM     23  CE  LYS A   3      -6.370  14.782  56.154  0.00  0.00    -0.086 C 
BRANCH  23  24
ATOM     24  NZ  LYS A   3      -5.040  15.406  56.443  0.00  0.00    +0.380 N 
ATOM     25  HZ1 LYS A   3      -4.982  15.643  57.454  0.00  0.00    -0.089 HD
ATOM     26  HZ2 LYS A   3      -4.283  14.735  56.199  0.00  0.00    -0.089 HD
ATOM     27  HZ3 LYS A   3      -4.934  16.271  55.876  0.00  0.00    -0.089 HD
ENDBRANCH  23  24
ENDBRANCH  22  23
ENDBRANCH  21  22
ENDBRANCH  20  21
ENDBRANCH  17  20
ENDBRANCH  14  17
ENDBRANCH   1  13
BRANCH   1  28
ATOM     28  CB  SER A   2      -8.943  14.229  47.476  0.00  0.00    +0.166 C 
BRANCH  28  29
ATOM     29  OG  SER A   2     -10.011  14.190  48.401  0.00  0.00    -0.380 OA
ATOM     30  H   SER A   2     -10.538  13.364  48.260  0.00  0.00    +0.211 HD
ENDBRANCH  28  29
ENDBRANCH   1  28
TORSDOF 15
REMARK  Name = ../refined-set-2016/3cd0/3cd0_pocket.pdb
REMARK  247 active torsions:
REMARK  status: ('A' for Active; 'I' for Inactive)
REMARK    1  A    between atoms: _1  and  _3
REMARK    2  A    between atoms: _3  and  _4
REMARK    3  A    between atoms: _3  and  _6
REMARK    4  A    between atoms: _6  and  _7
REMARK    5  A    between atoms: _10  and  _12
REMARK    6  A    between atoms: _12  and  _13
REMARK    7  A    between atoms: _12  and  _15
REMARK    8  A    between atoms: _15  and  _16
REMARK    9  A    between atoms: _16  and  _17
REMARK   10  A    between atoms: _20  and  _22
REMARK   11  A    between atoms: _22  and  _23
REMARK   12  A    between atoms: _25  and  _27
REMARK   13  A    between atoms: _27  and  _28
REMARK   14  A    between atoms: _27  and  _30
REMARK   15  A    between atoms: _32  and  _34
REMARK   16  A    between atoms: _34  and  _35
REMARK   17  A    between atoms: _34  and  _37
REMARK   18  A    between atoms: _37  and  _38
REMARK   19  A    between atoms: _41  and  _43
REMARK   20  A    between atoms: _43  and  _44
REMARK   21  A    between atoms: _43  and  _46
REMARK   22  A    between atoms: _49  and  _51
REMARK   23  A    between atoms: _51  and  _52
REMARK   24  A    between atoms: _55  and  _57
REMARK   25  A    between atoms: _57  and  _58
REMARK   26  A    between atoms: _57  and  _60
REMARK   27  A    between atoms: _60  and  _61
REMARK   28  A    between atoms: _63  and  _65
REMARK   29  A    between atoms: _65  and  _66
REMARK   30  A    between atoms: _65  and  _68
REMARK   31  A    between atoms: _68  and  _69
REMARK   32  A    between atoms: _72  and  _74
REMARK   33  A    between atoms: _74  and  _75
REMARK   34  A    between atoms: _74  and  _77
REMARK   35  A    between atoms: _77  and  _78
REMARK   36  A    between atoms: _83  and  _85
REMARK   37  A    between atoms: _85  and  _86
REMARK   38  A    between atoms: _85  and  _88
REMARK   39  A    between atoms: _88  and  _89
REMARK   40  A    between atoms: _89  and  _90
REMARK   41  A    between atoms: _90  and  _91
REMARK   42  A    between atoms: _100  and  _102
REMARK   43  A    between atoms: _102  and  _103
REMARK   44  A    between atoms: _105  and  _107
REMARK   45  A    between atoms: _107  and  _108
REMARK   46  A    between atoms: _107  and  _110
REMARK   47  A    between atoms: _113  and  _115
REMARK   48  A    between atoms: _115  and  _116
REMARK   49  A    between atoms: _115  and  _118
REMARK   50  A    between atoms: _118  and  _119
REMARK   51  A    between atoms: _122  and  _124
REMARK   52  A    between atoms: _124  and  _125
REMARK   53  A    between atoms: _124  and  _127
REMARK   54  A    between atoms: _127  and  _128
REMARK   55  A    between atoms: _128  and  _129
REMARK   56  A    between atoms: _129  and  _130
REMARK   57  A    between atoms: _130  and  _131
REMARK   58  A    between atoms: _135  and  _137
REMARK   59  A    between atoms: _137  and  _138
REMARK   60  A    between atoms: _137  and  _140
REMARK   61  A    between atoms: _140  and  _141
REMARK   62  A    between atoms: _141  and  _142
REMARK   63  A    between atoms: _142  and  _143
REMARK   64  A    between atoms: _143  and  _144
REMARK   65  A    between atoms: _148  and  _150
REMARK   66  A    between atoms: _150  and  _151
REMARK   67  A    between atoms: _150  and  _153
REMARK   68  A    between atoms: _153  and  _154
REMARK   69  A    between atoms: _159  and  _161
REMARK   70  A    between atoms: _161  and  _162
REMARK   71  A    between atoms: _161  and  _164
REMARK   72  A    between atoms: _164  and  _165
REMARK   73  A    between atoms: _170  and  _172
REMARK   74  A    between atoms: _172  and  _173
REMARK   75  A    between atoms: _176  and  _178
REMARK   76  A    between atoms: _178  and  _179
REMARK   77  A    between atoms: _178  and  _181
REMARK   78  A    between atoms: _181  and  _182
REMARK   79  A    between atoms: _187  and  _189
REMARK   80  A    between atoms: _189  and  _190
REMARK   81  A    between atoms: _193  and  _195
REMARK   82  A    between atoms: _195  and  _196
REMARK   83  A    between atoms: _199  and  _201
REMARK   84  A    between atoms: _201  and  _202
REMARK   85  A    between atoms: _201  and  _204
REMARK   86  A    between atoms: _204  and  _205
REMARK   87  A    between atoms: _210  and  _212
REMARK   88  A    between atoms: _212  and  _213
REMARK   89  A    between atoms: _212  and  _215
REMARK   90  A    between atoms: _215  and  _216
REMARK   91  A    between atoms: _219  and  _221
REMARK   92  A    between atoms: _221  and  _222
REMARK   93  A    between atoms: _224  and  _226
REMARK   94  A    between atoms: _226  and  _227
REMARK   95  A    between atoms: _226  and  _229
REMARK   96  A    between atoms: _229  and  _230
REMARK   97  A    between atoms: _230  and  _231
REMARK   98  A    between atoms: _234  and  _236
REMARK   99  A    between atoms: _236  and  _237
REMARK  100  A    between atoms: _236  and  _239
REMARK  101  A    between atoms: _239  and  _240
REMARK  102  A    between atoms: _243  and  _245
REMARK  103  A    between atoms: _245  and  _246
REMARK  104  A    between atoms: _245  and  _248
REMARK  105  A    between atoms: _248  and  _249
REMARK  106  A    between atoms: _251  and  _253
REMARK  107  A    between atoms: _253  and  _254
REMARK  108  A    between atoms: _253  and  _256
REMARK  109  A    between atoms: _256  and  _257
REMARK  110  A    between atoms: _260  and  _262
REMARK  111  A    between atoms: _262  and  _263
REMARK  112  A    between atoms: _262  and  _265
REMARK  113  A    between atoms: _265  and  _266
REMARK  114  A    between atoms: _266  and  _267
REMARK  115  A    between atoms: _269  and  _271
REMARK  116  A    between atoms: _271  and  _272
REMARK  117  A    between atoms: _275  and  _277
REMARK  118  A    between atoms: _277  and  _278
REMARK  119  A    between atoms: _281  and  _283
REMARK  120  A    between atoms: _283  and  _284
REMARK  121  A    between atoms: _283  and  _286
REMARK  122  A    between atoms: _286  and  _287
REMARK  123  A    between atoms: _290  and  _292
REMARK  124  A    between atoms: _292  and  _293
REMARK  125  A    between atoms: _292  and  _295
REMARK  126  A    between atoms: _295  and  _296
REMARK  127  A    between atoms: _301  and  _303
REMARK  128  A    between atoms: _303  and  _304
REMARK  129  A    between atoms: _303  and  _306
REMARK  130  A    between atoms: _306  and  _307
REMARK  131  A    between atoms: _307  and  _308
REMARK  132  A    between atoms: _311  and  _313
REMARK  133  A    between atoms: _313  and  _314
REMARK  134  A    between atoms: _313  and  _316
REMARK  135  A    between atoms: _316  and  _317
REMARK  136  A    between atoms: _322  and  _324
REMARK  137  A    between atoms: _324  and  _325
REMARK  138  A    between atoms: _324  and  _327
REMARK  139  A    between atoms: _327  and  _328
REMARK  140  A    between atoms: _331  and  _333
REMARK  141  A    between atoms: _333  and  _334
REMARK  142  A    between atoms: _333  and  _336
REMARK  143  A    between atoms: _336  and  _337
REMARK  144  A    between atoms: _337  and  _338
REMARK  145  A    between atoms: _338  and  _339
REMARK  146  A    between atoms: _348  and  _350
REMARK  147  A    between atoms: _350  and  _351
REMARK  148  A    between atoms: _353  and  _355
REMARK  149  A    between atoms: _355  and  _356
REMARK  150  A    between atoms: _355  and  _358
REMARK  151  A    between atoms: _358  and  _359
REMARK  152  A    between atoms: _359  and  _360
REMARK  153  A    between atoms: _362  and  _364
REMARK  154  A    between atoms: _364  and  _365
REMARK  155  A    between atoms: _364  and  _367
REMARK  156  A    between atoms: _367  and  _368
REMARK  157  A    between atoms: _368  and  _369
REMARK  158  A    between atoms: _371  and  _373
REMARK  159  A    between atoms: _373  and  _374
REMARK  160  A    between atoms: _373  and  _376
REMARK  161  A    between atoms: _376  and  _377
REMARK  162  A    between atoms: _382  and  _384
REMARK  163  A    between atoms: _384  and  _385
REMARK  164  A    between atoms: _384  and  _387
REMARK  165  A    between atoms: _387  and  _388
REMARK  166  A    between atoms: _391  and  _393
REMARK  167  A    between atoms: _393  and  _394
REMARK  168  A    between atoms: _393  and  _396
REMARK  169  A    between atoms: _396  and  _397
REMARK  170  A    between atoms: _399  and  _401
REMARK  171  A    between atoms: _401  and  _402
REMARK  172  A    between atoms: _401  and  _404
REMARK  173  A    between atoms: _404  and  _405
REMARK  174  A    between atoms: _405  and  _406
REMARK  175  A    between atoms: _406  and  _407
REMARK  176  A    between atoms: _407  and  _408
REMARK  177  A    between atoms: _412  and  _414
REMARK  178  A    between atoms: _414  and  _415
REMARK  179  A    between atoms: _414  and  _417
REMARK  180  A    between atoms: _417  and  _418
REMARK  181  A    between atoms: _421  and  _423
REMARK  182  A    between atoms: _423  and  _424
REMARK  183  A    between atoms: _423  and  _426
REMARK  184  A    between atoms: _426  and  _427
REMARK  185  A    between atoms: _427  and  _428
REMARK  186  A    between atoms: _431  and  _433
REMARK  187  A    between atoms: _433  and  _434
REMARK  188  A    between atoms: _437  and  _439
REMARK  189  A    between atoms: _439  and  _440
REMARK  190  A    between atoms: _439  and  _442
REMARK  191  A    between atoms: _445  and  _447
REMARK  192  A    between atoms: _447  and  _448
REMARK  193  A    between atoms: _447  and  _450
REMARK  194  A    between atoms: _450  and  _451
REMARK  195  A    between atoms: _453  and  _455
REMARK  196  A    between atoms: _455  and  _456
REMARK  197  A    between atoms: _458  and  _460
REMARK  198  A    between atoms: _460  and  _461
REMARK  199  A    between atoms: _460  and  _463
REMARK  200  A    between atoms: _463  and  _464
REMARK  201  A    between atoms: _469  and  _471
REMARK  202  A    between atoms: _471  and  _472
REMARK  203  A    between atoms: _471  and  _474
REMARK  204  A    between atoms: _474  and  _475
REMARK  205  A    between atoms: _480  and  _481
REMARK  206  A    between atoms: _483  and  _485
REMARK  207  A    between atoms: _485  and  _486
REMARK  208  A    between atoms: _485  and  _488
REMARK  209  A    between atoms: _490  and  _492
REMARK  210  A    between atoms: _492  and  _493
REMARK  211  A    between atoms: _492  and  _495
REMARK  212  A    between atoms: _495  and  _496
REMARK  213  A    between atoms: _499  and  _501
REMARK  214  A    between atoms: _501  and  _502
REMARK  215  A    between atoms: _501  and  _504
REMARK  216  A    between atoms: _504  and  _505
REMARK  217  A    between atoms: _508  and  _510
REMARK  218  A    between atoms: _510  and  _511
REMARK  219  A    between atoms: _510  and  _513
REMARK  220  A    between atoms: _513  and  _514
REMARK  221  A    between atoms: _514  and  _515
REMARK  222  A    between atoms: _515  and  _516
REMARK  223  A    between atoms: _516  and  _517
REMARK  224  A    between atoms: _521  and  _523
REMARK  225  A    between atoms: _523  and  _524
REMARK  226  A    between atoms: _523  and  _526
REMARK  227  A    between atoms: _526  and  _527
REMARK  228  A    between atoms: _527  and  _528
REMARK  229  A    between atoms: _528  and  _529
REMARK  230  A    between atoms: _529  and  _530
REMARK  231  A    between atoms: _534  and  _536
REMARK  232  A    between atoms: _536  and  _537
REMARK  233  A    between atoms: _536  and  _539
REMARK  234  A    between atoms: _539  and  _540
REMARK  235  A    between atoms: _540  and  _541
REMARK  236  A    between atoms: _541  and  _542
REMARK  237  A    between atoms: _551  and  _553
REMARK  238  A    between atoms: _553  and  _554
REMARK  239  A    between atoms: _553  and  _556
REMARK  240  A    between atoms: _556  and  _557
REMARK  241  A    between atoms: _560  and  _562
REMARK  242  A    between atoms: _562  and  _563
REMARK  243  A    between atoms: _566  and  _568
REMARK  244  A    between atoms: _568  and  _569
REMARK  245  A    between atoms: _568  and  _571
REMARK  246  A    between atoms: _571  and  _572
REMARK  247  A    between atoms: _572  and  _573
REMARK                            x       y       z     vdW  Elec       q    Type
REMARK                         _______ _______ _______ _____ _____    ______ ____
ROOT
ATOM      1  C   THR A   1      -9.144  20.884  48.757  0.00  0.00    +0.241 C 
ATOM      2  N   GLU A   2      -9.705  20.053  49.632  0.00  0.00    -0.298 N 
ATOM      3  H   GLU A   2      -9.303  19.102  49.756  0.00  0.00    +0.150 HD
ATOM      4  O   THR A   1      -9.525  22.035  48.586  0.00  0.00    -0.274 OA
ENDROOT
BRANCH   1   5
ATOM      5  CA  THR A   1      -7.962  20.352  47.963  0.00  0.00    +0.172 C 
BRANCH   5   6
ATOM      6  N   THR A   1      -7.105  19.552  48.828  0.00  0.00    -0.236 NA
ATOM      7  H   THR A   1      -7.114  18.517  48.725  0.00  0.00    +0.142 HD
ENDBRANCH   5   6
BRANCH   5   8
ATOM      8  CB  THR A   1      -8.436  19.519  46.739  0.00  0.00    +0.135 C 
ATOM      9  CG2 THR A   1      -9.477  20.264  45.909  0.00  0.00    +0.034 C 
BRANCH   8  10
ATOM     10  OG1 THR A   1      -7.346  19.344  45.825  0.00  0.00    -0.383 OA
ATOM     11  HG1 THR A   1      -6.607  18.868  46.281  0.00  0.00    +0.210 HD
ENDBRANCH   8  10
ENDBRANCH   5   8
ENDBRANCH   1   5
BRANCH   2  12
ATOM     12  CA  GLU A   2     -10.871  20.442  50.424  0.00  0.00    +0.137 C 
BRANCH  12  13
ATOM     13  C   GLU A   2     -10.530  21.565  51.388  0.00  0.00    +0.227 C 
ATOM     14  O   GLU A   2     -11.307  22.503  51.538  0.00  0.00    -0.286 OA
ENDBRANCH  12  13
BRANCH  12  15
ATOM     15  CB  GLU A   2     -11.455  19.244  51.175  0.00  0.00    +0.039 C 
BRANCH  15  16
ATOM     16  CG  GLU A   2     -12.226  18.307  50.251  0.00  0.00    +0.116 C 
BRANCH  16  17
ATOM     17  CD  GLU A   2     -13.148  17.352  50.981  0.00  0.00    +0.365 C 
ATOM     18  OE2 GLU A   2     -12.718  16.777  52.007  0.00  0.00    -0.246 OA
ATOM     19  OE1 GLU A   2     -14.300  17.168  50.516  0.00  0.00    -0.246 OA
ENDBRANCH  16  17
ENDBRANCH  15  16
ENDBRANCH  12  15
ENDBRANCH   2  12
TORSDOF 9
REMARK  Name = ../refined-set-2016/3cd0/3cd0_pocket.pdb
REMARK  247 active torsions:
REMARK  status: ('A' for Active; 'I' for Inactive)
REMARK    1  A    between atoms: _1  and  _3
REMARK    2  A    between atoms: _3  and  _4
REMARK    3  A    between atoms: _3  and  _6
REMARK    4  A    between atoms: _6  and  _7
REMARK    5  A    between atoms: _10  and  _12
REMARK    6  A    between atoms: _12  and  _13
REMARK    7  A    between atoms: _12  and  _15
REMARK    8  A    between atoms: _15  and  _16
REMARK    9  A    between atoms: _16  and  _17
REMARK   10  A    between atoms: _20  and  _22
REMARK   11  A    between atoms: _22  and  _23
REMARK   12  A    between atoms: _25  and  _27
REMARK   13  A    between atoms: _27  and  _28
REMARK   14  A    between atoms: _27  and  _30
REMARK   15  A    between atoms: _32  and  _34
REMARK   16  A    between atoms: _34  and  _35
REMARK   17  A    between atoms: _34  and  _37
REMARK   18  A    between atoms: _37  and  _38
REMARK   19  A    between atoms: _41  and  _43
REMARK   20  A    between atoms: _43  and  _44
REMARK   21  A    between atoms: _43  and  _46
REMARK   22  A    between atoms: _49  and  _51
REMARK   23  A    between atoms: _51  and  _52
REMARK   24  A    between atoms: _55  and  _57
REMARK   25  A    between atoms: _57  and  _58
REMARK   26  A    between atoms: _57  and  _60
REMARK   27  A    between atoms: _60  and  _61
REMARK   28  A    between atoms: _63  and  _65
REMARK   29  A    between atoms: _65  and  _66
REMARK   30  A    between atoms: _65  and  _68
REMARK   31  A    between atoms: _68  and  _69
REMARK   32  A    between atoms: _72  and  _74
REMARK   33  A    between atoms: _74  and  _75
REMARK   34  A    between atoms: _74  and  _77
REMARK   35  A    between atoms: _77  and  _78
REMARK   36  A    between atoms: _83  and  _85
REMARK   37  A    between atoms: _85  and  _86
REMARK   38  A    between atoms: _85  and  _88
REMARK   39  A    between atoms: _88  and  _89
REMARK   40  A    between atoms: _89  and  _90
REMARK   41  A    between atoms: _90  and  _91
REMARK   42  A    between atoms: _100  and  _102
REMARK   43  A    between atoms: _102  and  _103
REMARK   44  A    between atoms: _105  and  _107
REMARK   45  A    between atoms: _107  and  _108
REMARK   46  A    between atoms: _107  and  _110
REMARK   47  A    between atoms: _113  and  _115
REMARK   48  A    between atoms: _115  and  _116
REMARK   49  A    between atoms: _115  and  _118
REMARK   50  A    between atoms: _118  and  _119
REMARK   51  A    between atoms: _122  and  _124
REMARK   52  A    between atoms: _124  and  _125
REMARK   53  A    between atoms: _124  and  _127
REMARK   54  A    between atoms: _127  and  _128
REMARK   55  A    between atoms: _128  and  _129
REMARK   56  A    between atoms: _129  and  _130
REMARK   57  A    between atoms: _130  and  _131
REMARK   58  A    between atoms: _135  and  _137
REMARK   59  A    between atoms: _137  and  _138
REMARK   60  A    between atoms: _137  and  _140
REMARK   61  A    between atoms: _140  and  _141
REMARK   62  A    between atoms: _141  and  _142
REMARK   63  A    between atoms: _142  and  _143
REMARK   64  A    between atoms: _143  and  _144
REMARK   65  A    between atoms: _148  and  _150
REMARK   66  A    between atoms: _150  and  _151
REMARK   67  A    between atoms: _150  and  _153
REMARK   68  A    between atoms: _153  and  _154
REMARK   69  A    between atoms: _159  and  _161
REMARK   70  A    between atoms: _161  and  _162
REMARK   71  A    between atoms: _161  and  _164
REMARK   72  A    between atoms: _164  and  _165
REMARK   73  A    between atoms: _170  and  _172
REMARK   74  A    between atoms: _172  and  _173
REMARK   75  A    between atoms: _176  and  _178
REMARK   76  A    between atoms: _178  and  _179
REMARK   77  A    between atoms: _178  and  _181
REMARK   78  A    between atoms: _181  and  _182
REMARK   79  A    between atoms: _187  and  _189
REMARK   80  A    between atoms: _189  and  _190
REMARK   81  A    between atoms: _193  and  _195
REMARK   82  A    between atoms: _195  and  _196
REMARK   83  A    between atoms: _199  and  _201
REMARK   84  A    between atoms: _201  and  _202
REMARK   85  A    between atoms: _201  and  _204
REMARK   86  A    between atoms: _204  and  _205
REMARK   87  A    between atoms: _210  and  _212
REMARK   88  A    between atoms: _212  and  _213
REMARK   89  A    between atoms: _212  and  _215
REMARK   90  A    between atoms: _215  and  _216
REMARK   91  A    between atoms: _219  and  _221
REMARK   92  A    between atoms: _221  and  _222
REMARK   93  A    between atoms: _224  and  _226
REMARK   94  A    between atoms: _226  and  _227
REMARK   95  A    between atoms: _226  and  _229
REMARK   96  A    between atoms: _229  and  _230
REMARK   97  A    between atoms: _230  and  _231
REMARK   98  A    between atoms: _234  and  _236
REMARK   99  A    between atoms: _236  and  _237
REMARK  100  A    between atoms: _236  and  _239
REMARK  101  A    between atoms: _239  and  _240
REMARK  102  A    between atoms: _243  and  _245
REMARK  103  A    between atoms: _245  and  _246
REMARK  104  A    between atoms: _245  and  _248
REMARK  105  A    between atoms: _248  and  _249
REMARK  106  A    between atoms: _251  and  _253
REMARK  107  A    between atoms: _253  and  _254
REMARK  108  A    between atoms: _253  and  _256
REMARK  109  A    between atoms: _256  and  _257
REMARK  110  A    between atoms: _260  and  _262
REMARK  111  A    between atoms: _262  and  _263
REMARK  112  A    between atoms: _262  and  _265
REMARK  113  A    between atoms: _265  and  _266
REMARK  114  A    between atoms: _266  and  _267
REMARK  115  A    between atoms: _269  and  _271
REMARK  116  A    between atoms: _271  and  _272
REMARK  117  A    between atoms: _275  and  _277
REMARK  118  A    between atoms: _277  and  _278
REMARK  119  A    between atoms: _281  and  _283
REMARK  120  A    between atoms: _283  and  _284
REMARK  121  A    between atoms: _283  and  _286
REMARK  122  A    between atoms: _286  and  _287
REMARK  123  A    between atoms: _290  and  _292
REMARK  124  A    between atoms: _292  and  _293
REMARK  125  A    between atoms: _292  and  _295
REMARK  126  A    between atoms: _295  and  _296
REMARK  127  A    between atoms: _301  and  _303
REMARK  128  A    between atoms: _303  and  _304
REMARK  129  A    between atoms: _303  and  _306
REMARK  130  A    between atoms: _306  and  _307
REMARK  131  A    between atoms: _307  and  _308
REMARK  132  A    between atoms: _311  and  _313
REMARK  133  A    between atoms: _313  and  _314
REMARK  134  A    between atoms: _313  and  _316
REMARK  135  A    between atoms: _316  and  _317
REMARK  136  A    between atoms: _322  and  _324
REMARK  137  A    between atoms: _324  and  _325
REMARK  138  A    between atoms: _324  and  _327
REMARK  139  A    between atoms: _327  and  _328
REMARK  140  A    between atoms: _331  and  _333
REMARK  141  A    between atoms: _333  and  _334
REMARK  142  A    between atoms: _333  and  _336
REMARK  143  A    between atoms: _336  and  _337
REMARK  144  A    between atoms: _337  and  _338
REMARK  145  A    between atoms: _338  and  _339
REMARK  146  A    between atoms: _348  and  _350
REMARK  147  A    between atoms: _350  and  _351
REMARK  148  A    between atoms: _353  and  _355
REMARK  149  A    between atoms: _355  and  _356
REMARK  150  A    between atoms: _355  and  _358
REMARK  151  A    between atoms: _358  and  _359
REMARK  152  A    between atoms: _359  and  _360
REMARK  153  A    between atoms: _362  and  _364
REMARK  154  A    between atoms: _364  and  _365
REMARK  155  A    between atoms: _364  and  _367
REMARK  156  A    between atoms: _367  and  _368
REMARK  157  A    between atoms: _368  and  _369
REMARK  158  A    between atoms: _371  and  _373
REMARK  159  A    between atoms: _373  and  _374
REMARK  160  A    between atoms: _373  and  _376
REMARK  161  A    between atoms: _376  and  _377
REMARK  162  A    between atoms: _382  and  _384
REMARK  163  A    between atoms: _384  and  _385
REMARK  164  A    between atoms: _384  and  _387
REMARK  165  A    between atoms: _387  and  _388
REMARK  166  A    between atoms: _391  and  _393
REMARK  167  A    between atoms: _393  and  _394
REMARK  168  A    between atoms: _393  and  _396
REMARK  169  A    between atoms: _396  and  _397
REMARK  170  A    between atoms: _399  and  _401
REMARK  171  A    between atoms: _401  and  _402
REMARK  172  A    between atoms: _401  and  _404
REMARK  173  A    between atoms: _404  and  _405
REMARK  174  A    between atoms: _405  and  _406
REMARK  175  A    between atoms: _406  and  _407
REMARK  176  A    between atoms: _407  and  _408
REMARK  177  A    between atoms: _412  and  _414
REMARK  178  A    between atoms: _414  and  _415
REMARK  179  A    between atoms: _414  and  _417
REMARK  180  A    between atoms: _417  and  _418
REMARK  181  A    between atoms: _421  and  _423
REMARK  182  A    between atoms: _423  and  _424
REMARK  183  A    between atoms: _423  and  _426
REMARK  184  A    between atoms: _426  and  _427
REMARK  185  A    between atoms: _427  and  _428
REMARK  186  A    between atoms: _431  and  _433
REMARK  187  A    between atoms: _433  and  _434
REMARK  188  A    between atoms: _437  and  _439
REMARK  189  A    between atoms: _439  and  _440
REMARK  190  A    between atoms: _439  and  _442
REMARK  191  A    between atoms: _445  and  _447
REMARK  192  A    between atoms: _447  and  _448
REMARK  193  A    between atoms: _447  and  _450
REMARK  194  A    between atoms: _450  and  _451
REMARK  195  A    between atoms: _453  and  _455
REMARK  196  A    between atoms: _455  and  _456
REMARK  197  A    between atoms: _458  and  _460
REMARK  198  A    between atoms: _460  and  _461
REMARK  199  A    between atoms: _460  and  _463
REMARK  200  A    between atoms: _463  and  _464
REMARK  201  A    between atoms: _469  and  _471
REMARK  202  A    between atoms: _471  and  _472
REMARK  203  A    between atoms: _471  and  _474
REMARK  204  A    between atoms: _474  and  _475
REMARK  205  A    between atoms: _480  and  _481
REMARK  206  A    between atoms: _483  and  _485
REMARK  207  A    between atoms: _485  and  _486
REMARK  208  A    between atoms: _485  and  _488
REMARK  209  A    between atoms: _490  and  _492
REMARK  210  A    between atoms: _492  and  _493
REMARK  211  A    between atoms: _492  and  _495
REMARK  212  A    between atoms: _495  and  _496
REMARK  213  A    between atoms: _499  and  _501
REMARK  214  A    between atoms: _501  and  _502
REMARK  215  A    between atoms: _501  and  _504
REMARK  216  A    between atoms: _504  and  _505
REMARK  217  A    between atoms: _508  and  _510
REMARK  218  A    between atoms: _510  and  _511
REMARK  219  A    between atoms: _510  and  _513
REMARK  220  A    between atoms: _513  and  _514
REMARK  221  A    between atoms: _514  and  _515
REMARK  222  A    between atoms: _515  and  _516
REMARK  223  A    between atoms: _516  and  _517
REMARK  224  A    between atoms: _521  and  _523
REMARK  225  A    between atoms: _523  and  _524
REMARK  226  A    between atoms: _523  and  _526
REMARK  227  A    between atoms: _526  and  _527
REMARK  228  A    between atoms: _527  and  _528
REMARK  229  A    between atoms: _528  and  _529
REMARK  230  A    between atoms: _529  and  _530
REMARK  231  A    between atoms: _534  and  _536
REMARK  232  A    between atoms: _536  and  _537
REMARK  233  A    between atoms: _536  and  _539
REMARK  234  A    between atoms: _539  and  _540
REMARK  235  A    between atoms: _540  and  _541
REMARK  236  A    between atoms: _541  and  _542
REMARK  237  A    between atoms: _551  and  _553
REMARK  238  A    between atoms: _553  and  _554
REMARK  239  A    between atoms: _553  and  _556
REMARK  240  A    between atoms: _556  and  _557
REMARK  241  A    between atoms: _560  and  _562
REMARK  242  A    between atoms: _562  and  _563
REMARK  243  A    between atoms: _566  and  _568
REMARK  244  A    between atoms: _568  and  _569
REMARK  245  A    between atoms: _568  and  _571
REMARK  246  A    between atoms: _571  and  _572
REMARK  247  A    between atoms: _572  and  _573
REMARK                            x       y       z     vdW  Elec       q    Type
REMARK                         _______ _______ _______ _____ _____    ______ ____
ROOT
ATOM      1  C   TYR A   6      -9.598  18.024  35.827  0.00  0.00    +0.241 C 
ATOM      2  N   CYS A   7      -9.574  16.905  36.548  0.00  0.00    -0.296 N 
ATOM      3  H   CYS A   7     -10.462  16.386  36.703  0.00  0.00    +0.150 HD
ATOM      4  O   TYR A   6      -8.586  18.652  35.550  0.00  0.00    -0.273 OA
ENDROOT
BRANCH   1   5
ATOM      5  CA  TYR A   6     -10.960  18.491  35.320  0.00  0.00    +0.153 C 
BRANCH   5   7
ATOM      6  C   ASN A   5     -12.663  16.772  35.187  0.00  0.00    +0.241 C 
ATOM      7  N   TYR A   6     -12.013  17.677  35.904  0.00  0.00    -0.297 N 
ATOM      8  H   TYR A   6     -12.261  17.808  36.905  0.00  0.00    +0.150 HD
ATOM      9  O   ASN A   5     -12.416  16.581  34.003  0.00  0.00    -0.273 OA
BRANCH   6  10
ATOM     10  CA  ASN A   5     -13.751  15.953  35.900  0.00  0.00    +0.158 C 
BRANCH  10  12
ATOM     11  C   GLY A   4     -14.942  17.780  37.044  0.00  0.00    +0.243 C 
ATOM     12  N   ASN A   5     -14.320  16.599  37.091  0.00  0.00    -0.297 N 
ATOM     13  H   ASN A   5     -14.235  16.117  38.008  0.00  0.00    +0.150 HD
ATOM     14  O   GLY A   4     -15.106  18.416  35.996  0.00  0.00    -0.273 OA
BRANCH  11  15
ATOM     15  CA  GLY A   4     -15.449  18.344  38.363  0.00  0.00    +0.176 C 
BRANCH  15  18
ATOM     16  C   SER A   3     -15.023  16.925  40.306  0.00  0.00    +0.243 C 
ATOM     17  O   SER A   3     -16.138  16.399  40.272  0.00  0.00    -0.273 OA
ATOM     18  N   GLY A   4     -14.647  17.903  39.487  0.00  0.00    -0.295 N 
ATOM     19  H   GLY A   4     -13.736  18.373  39.661  0.00  0.00    +0.150 HD
BRANCH  16  20
ATOM     20  CA  SER A   3     -13.975  16.479  41.327  0.00  0.00    +0.178 C 
BRANCH  20  23
ATOM     21  C   VAL A   2     -13.732  17.548  43.524  0.00  0.00    +0.241 C 
ATOM     22  O   VAL A   2     -12.526  17.769  43.389  0.00  0.00    -0.273 OA
ATOM     23  N   SER A   3     -14.437  16.787  42.684  0.00  0.00    -0.295 N 
ATOM     24  H   SER A   3     -15.347  16.398  43.004  0.00  0.00    +0.150 HD
BRANCH  21  25
ATOM     25  CA  VAL A   2     -14.508  18.138  44.704  0.00  0.00    +0.148 C 
BRANCH  25  27
ATOM     26  C   ALA A   1     -16.492  18.969  43.548  0.00  0.00    +0.238 C 
ATOM     27  N   VAL A   2     -15.945  18.129  44.420  0.00  0.00    -0.297 N 
ATOM     28  H   VAL A   2     -16.554  17.446  44.915  0.00  0.00    +0.150 HD
ATOM     29  O   ALA A   1     -15.829  19.760  42.887  0.00  0.00    -0.274 OA
BRANCH  26  30
ATOM     30  CA  ALA A   1     -18.007  18.900  43.385  0.00  0.00    +0.145 C 
ATOM     31  CB  ALA A   1     -18.373  18.121  42.125  0.00  0.00    +0.028 C 
BRANCH  30  32
ATOM     32  N   ALA A   1     -18.587  20.238  43.335  0.00  0.00    -0.238 NA
ATOM     33  H   ALA A   1     -17.994  21.034  43.024  0.00  0.00    +0.142 HD
ENDBRANCH  30  32
ENDBRANCH  26  30
ENDBRANCH  25  27
BRANCH  25  34
ATOM     34  CB  VAL A   2     -14.184  17.403  46.029  0.00  0.00    +0.027 C 
ATOM     35  CG2 VAL A   2     -12.808  17.815  46.564  0.00  0.00    +0.002 C 
ATOM     36  CG1 VAL A   2     -14.274  15.899  45.859  0.00  0.00    +0.002 C 
ENDBRANCH  25  34
ENDBRANCH  21  25
ENDBRANCH  20  23
BRANCH  20  37
ATOM     37  CB  SER A   3     -13.687  14.982  41.157  0.00  0.00    +0.166 C 
BRANCH  37  38
ATOM     38  OG  SER A   3     -13.179  14.712  39.855  0.00  0.00    -0.380 OA
ATOM     39  H   SER A   3     -13.000  13.742  39.766  0.00  0.00    +0.211 HD
ENDBRANCH  37  38
ENDBRANCH  20  37
ENDBRANCH  16  20
ENDBRANCH  15  18
ENDBRANCH  11  15
ENDBRANCH  10  12
BRANCH  10  40
ATOM     40  CB  ASN A   5     -14.870  15.585  34.907  0.00  0.00    +0.114 C 
BRANCH  40  41
ATOM     41  CG  ASN A   5     -15.529  14.262  35.230  0.00  0.00    +0.222 C 
ATOM     42  OD1 ASN A   5     -15.268  13.656  36.276  0.00  0.00    -0.275 OA
ATOM     43  ND2 ASN A   5     -16.386  13.792  34.316  0.00  0.00    -0.329 N 
ATOM     44 HD21 ASN A   5     -16.864  12.881  34.471  0.00  0.00    +0.145 HD
ATOM     45 HD22 ASN A   5     -16.574  14.337  33.451  0.00  0.00    +0.145 HD
ENDBRANCH  40  41
ENDBRANCH  10  40
ENDBRANCH   6  10
ENDBRANCH   5   7
BRANCH   5  46
ATOM     46  CB  TYR A   6     -11.207  19.964  35.669  0.00  0.00    +0.055 C 
BRANCH  46  47
ATOM     47  CG  TYR A   6     -10.422  20.991  34.875  0.00  0.00    -0.020 A 
ATOM     48  CD2 TYR A   6      -9.583  21.899  35.518  0.00  0.00    -0.001 A 
ATOM     49  CE2 TYR A   6      -8.877  22.862  34.802  0.00  0.00    +0.036 A 
ATOM     50  CZ  TYR A   6      -9.001  22.922  33.428  0.00  0.00    +0.134 A 
ATOM     51  CE1 TYR A   6      -9.828  22.040  32.767  0.00  0.00    +0.036 A 
ATOM     52  CD1 TYR A   6     -10.540  21.082  33.493  0.00  0.00    -0.001 A 
BRANCH  50  53
ATOM     53  OH  TYR A   6      -8.300  23.879  32.719  0.00  0.00    -0.506 OA
ATOM     54  HH  TYR A   6      -7.329  23.755  32.870  0.00  0.00    +0.292 HD
ENDBRANCH  50  53
ENDBRANCH  46  47
ENDBRANCH   5  46
ENDBRANCH   1   5
BRANCH   2  55
ATOM     55  CA  CYS A   7      -8.336  16.383  37.130  0.00  0.00    +0.160 C 
BRANCH  55  56
ATOM     56  C   CYS A   7      -7.312  15.957  36.061  0.00  0.00    +0.242 C 
ATOM     57  O   CYS A   7      -6.190  16.467  36.090  0.00  0.00    -0.273 OA
ATOM     58  N   THR A   8      -7.632  15.060  35.117  0.00  0.00    -0.295 N 
ATOM     59  H   THR A   8      -6.924  14.905  34.371  0.00  0.00    +0.150 HD
BRANCH  58  60
ATOM     60  CA  THR A   8      -8.862  14.274  35.016  0.00  0.00    +0.176 C 
BRANCH  60  61
ATOM     61  C   THR A   8      -8.521  12.841  35.419  0.00  0.00    +0.243 C 
ATOM     62  N   ASP A   9      -9.418  12.188  36.140  0.00  0.00    -0.296 N 
ATOM     63  H   ASP A   9     -10.351  12.619  36.296  0.00  0.00    +0.150 HD
ATOM     64  O   THR A   8      -7.473  12.329  35.064  0.00  0.00    -0.273 OA
BRANCH  62  65
ATOM     65  CA  ASP A   9      -9.138  10.888  36.720  0.00  0.00    +0.160 C 
BRANCH  65  66
ATOM     66  C   ASP A   9      -9.996   9.800  36.091  0.00  0.00    +0.241 C 
ATOM     67  O   ASP A   9     -11.224   9.866  36.130  0.00  0.00    -0.273 OA
ATOM     68  N   LYS A  10      -9.326   8.804  35.516  0.00  0.00    -0.297 N 
ATOM     69  H   LYS A  10      -8.293   8.887  35.435  0.00  0.00    +0.150 HD
BRANCH  68  70
ATOM     70  CA  LYS A  10      -9.968   7.599  34.993  0.00  0.00    +0.149 C 
BRANCH  70  71
ATOM     71  C   LYS A  10     -10.972   7.831  33.845  0.00  0.00    +0.241 C 
ATOM     72  O   LYS A  10     -11.884   7.034  33.657  0.00  0.00    -0.273 OA
ATOM     73  N   LYS A  11     -10.793   8.928  33.103  0.00  0.00    -0.298 N 
ATOM     74  H   LYS A  11     -10.148   9.661  33.462  0.00  0.00    +0.150 HD
BRANCH  73  75
ATOM     75  CA  LYS A  11     -11.452   9.162  31.811  0.00  0.00    +0.137 C 
BRANCH  75  76
ATOM     76  C   LYS A  11     -10.442   9.763  30.813  0.00  0.00    +0.227 C 
ATOM     77  O   LYS A  11      -9.518  10.468  31.218  0.00  0.00    -0.286 OA
ENDBRANCH  75  76
BRANCH  75  78
ATOM     78  CB  LYS A  11     -12.607  10.154  31.955  0.00  0.00    +0.028 C 
BRANCH  78  79
ATOM     79  CG  LYS A  11     -13.859   9.615  32.629  0.00  0.00    -0.000 C 
BRANCH  79  80
ATOM     80  CD  LYS A  11     -13.851   9.756  34.150  0.00  0.00    -0.024 C 
BRANCH  80  81
ATOM     81  CE  LYS A  11     -13.814  11.205  34.617  0.00  0.00    -0.086 C 
BRANCH  81  82
ATOM     82  NZ  LYS A  11     -13.923  11.309  36.109  0.00  0.00    +0.380 N 
ATOM     83  HZ1 LYS A  11     -13.129  10.802  36.550  0.00  0.00    -0.089 HD
ATOM     84  HZ2 LYS A  11     -14.821  10.887  36.420  0.00  0.00    -0.089 HD
ATOM     85  HZ3 LYS A  11     -13.894  12.310  36.389  0.00  0.00    -0.089 HD
ENDBRANCH  81  82
ENDBRANCH  80  81
ENDBRANCH  79  80
ENDBRANCH  78  79
ENDBRANCH  75  78
ENDBRANCH  73  75
ENDBRANCH  70  71
BRANCH  70  86
ATOM     86  CB  LYS A  10     -10.602   6.798  36.146  0.00  0.00    +0.029 C 
BRANCH  86  87
ATOM     87  CG  LYS A  10      -9.575   6.213  37.129  0.00  0.00    +0.000 C 
BRANCH  87  88
ATOM     88  CD  LYS A  10     -10.235   5.856  38.472  0.00  0.00    -0.024 C 
BRANCH  88  89
ATOM     89  CE  LYS A  10      -9.298   5.104  39.416  0.00  0.00    -0.086 C 
BRANCH  89  90
ATOM     90  NZ  LYS A  10     -10.014   4.512  40.584  0.00  0.00    +0.380 N 
ATOM     91  HZ1 LYS A  10      -9.332   4.014  41.191  0.00  0.00    -0.089 HD
ATOM     92  HZ2 LYS A  10     -10.475   5.270  41.127  0.00  0.00    -0.089 HD
ATOM     93  HZ3 LYS A  10     -10.733   3.841  40.245  0.00  0.00    -0.089 HD
ENDBRANCH  89  90
ENDBRANCH  88  89
ENDBRANCH  87  88
ENDBRANCH  86  87
ENDBRANCH  70  86
ENDBRANCH  68  70
ENDBRANCH  65  66
BRANCH  65  94
ATOM     94  CB  ASP A   9      -9.388  10.916  38.229  0.00  0.00    +0.143 C 
BRANCH  94  95
ATOM     95  CG  ASP A   9      -9.002   9.616  38.900  0.00  0.00    +0.367 C 
ATOM     96  OD2 ASP A   9      -9.729   9.067  39.762  0.00  0.00    -0.246 OA
ATOM     97  OD1 ASP A   9      -7.924   9.062  38.555  0.00  0.00    -0.246 OA
ENDBRANCH  94  95
ENDBRANCH  65  94
ENDBRANCH  62  65
ENDBRANCH  60  61
BRANCH  60  98
ATOM     98  CB  THR A   8      -9.378  14.285  33.556  0.00  0.00    +0.137 C 
ATOM     99  CG2 THR A   8     -10.732  13.595  33.436  0.00  0.00    +0.034 C 
BRANCH  98 100
ATOM    100  OG1 THR A   8      -9.638  15.628  33.128  0.00  0.00    -0.382 OA
ATOM    101  HG1 THR A   8     -10.324  16.034  33.716  0.00  0.00    +0.210 HD
ENDBRANCH  98 100
ENDBRANCH  60  98
ENDBRANCH  58  60
ENDBRANCH  55  56
BRANCH  55 102
ATOM    102  CB  CYS A   7      -8.604  15.258  38.137  0.00  0.00    +0.098 C 
ATOM    103  SG  CYS A   7     -10.164  15.411  39.062  0.00  0.00    -0.080 S 
ENDBRANCH  55 102
ENDBRANCH   2  55
TORSDOF 45
REMARK  Name = ../refined-set-2016/3cd0/3cd0_pocket.pdb
REMARK  247 active torsions:
REMARK  status: ('A' for Active; 'I' for Inactive)
REMARK    1  A    between atoms: _1  and  _3
REMARK    2  A    between atoms: _3  and  _4
REMARK    3  A    between atoms: _3  and  _6
REMARK    4  A    between atoms: _6  and  _7
REMARK    5  A    between atoms: _10  and  _12
REMARK    6  A    between atoms: _12  and  _13
REMARK    7  A    between atoms: _12  and  _15
REMARK    8  A    between atoms: _15  and  _16
REMARK    9  A    between atoms: _16  and  _17
REMARK   10  A    between atoms: _20  and  _22
REMARK   11  A    between atoms: _22  and  _23
REMARK   12  A    between atoms: _25  and  _27
REMARK   13  A    between atoms: _27  and  _28
REMARK   14  A    between atoms: _27  and  _30
REMARK   15  A    between atoms: _32  and  _34
REMARK   16  A    between atoms: _34  and  _35
REMARK   17  A    between atoms: _34  and  _37
REMARK   18  A    between atoms: _37  and  _38
REMARK   19  A    between atoms: _41  and  _43
REMARK   20  A    between atoms: _43  and  _44
REMARK   21  A    between atoms: _43  and  _46
REMARK   22  A    between atoms: _49  and  _51
REMARK   23  A    between atoms: _51  and  _52
REMARK   24  A    between atoms: _55  and  _57
REMARK   25  A    between atoms: _57  and  _58
REMARK   26  A    between atoms: _57  and  _60
REMARK   27  A    between atoms: _60  and  _61
REMARK   28  A    between atoms: _63  and  _65
REMARK   29  A    between atoms: _65  and  _66
REMARK   30  A    between atoms: _65  and  _68
REMARK   31  A    between atoms: _68  and  _69
REMARK   32  A    between atoms: _72  and  _74
REMARK   33  A    between atoms: _74  and  _75
REMARK   34  A    between atoms: _74  and  _77
REMARK   35  A    between atoms: _77  and  _78
REMARK   36  A    between atoms: _83  and  _85
REMARK   37  A    between atoms: _85  and  _86
REMARK   38  A    between atoms: _85  and  _88
REMARK   39  A    between atoms: _88  and  _89
REMARK   40  A    between atoms: _89  and  _90
REMARK   41  A    between atoms: _90  and  _91
REMARK   42  A    between atoms: _100  and  _102
REMARK   43  A    between atoms: _102  and  _103
REMARK   44  A    between atoms: _105  and  _107
REMARK   45  A    between atoms: _107  and  _108
REMARK   46  A    between atoms: _107  and  _110
REMARK   47  A    between atoms: _113  and  _115
REMARK   48  A    between atoms: _115  and  _116
REMARK   49  A    between atoms: _115  and  _118
REMARK   50  A    between atoms: _118  and  _119
REMARK   51  A    between atoms: _122  and  _124
REMARK   52  A    between atoms: _124  and  _125
REMARK   53  A    between atoms: _124  and  _127
REMARK   54  A    between atoms: _127  and  _128
REMARK   55  A    between atoms: _128  and  _129
REMARK   56  A    between atoms: _129  and  _130
REMARK   57  A    between atoms: _130  and  _131
REMARK   58  A    between atoms: _135  and  _137
REMARK   59  A    between atoms: _137  and  _138
REMARK   60  A    between atoms: _137  and  _140
REMARK   61  A    between atoms: _140  and  _141
REMARK   62  A    between atoms: _141  and  _142
REMARK   63  A    between atoms: _142  and  _143
REMARK   64  A    between atoms: _143  and  _144
REMARK   65  A    between atoms: _148  and  _150
REMARK   66  A    between atoms: _150  and  _151
REMARK   67  A    between atoms: _150  and  _153
REMARK   68  A    between atoms: _153  and  _154
REMARK   69  A    between atoms: _159  and  _161
REMARK   70  A    between atoms: _161  and  _162
REMARK   71  A    between atoms: _161  and  _164
REMARK   72  A    between atoms: _164  and  _165
REMARK   73  A    between atoms: _170  and  _172
REMARK   74  A    between atoms: _172  and  _173
REMARK   75  A    between atoms: _176  and  _178
REMARK   76  A    between atoms: _178  and  _179
REMARK   77  A    between atoms: _178  and  _181
REMARK   78  A    between atoms: _181  and  _182
REMARK   79  A    between atoms: _187  and  _189
REMARK   80  A    between atoms: _189  and  _190
REMARK   81  A    between atoms: _193  and  _195
REMARK   82  A    between atoms: _195  and  _196
REMARK   83  A    between atoms: _199  and  _201
REMARK   84  A    between atoms: _201  and  _202
REMARK   85  A    between atoms: _201  and  _204
REMARK   86  A    between atoms: _204  and  _205
REMARK   87  A    between atoms: _210  and  _212
REMARK   88  A    between atoms: _212  and  _213
REMARK   89  A    between atoms: _212  and  _215
REMARK   90  A    between atoms: _215  and  _216
REMARK   91  A    between atoms: _219  and  _221
REMARK   92  A    between atoms: _221  and  _222
REMARK   93  A    between atoms: _224  and  _226
REMARK   94  A    between atoms: _226  and  _227
REMARK   95  A    between atoms: _226  and  _229
REMARK   96  A    between atoms: _229  and  _230
REMARK   97  A    between atoms: _230  and  _231
REMARK   98  A    between atoms: _234  and  _236
REMARK   99  A    between atoms: _236  and  _237
REMARK  100  A    between atoms: _236  and  _239
REMARK  101  A    between atoms: _239  and  _240
REMARK  102  A    between atoms: _243  and  _245
REMARK  103  A    between atoms: _245  and  _246
REMARK  104  A    between atoms: _245  and  _248
REMARK  105  A    between atoms: _248  and  _249
REMARK  106  A    between atoms: _251  and  _253
REMARK  107  A    between atoms: _253  and  _254
REMARK  108  A    between atoms: _253  and  _256
REMARK  109  A    between atoms: _256  and  _257
REMARK  110  A    between atoms: _260  and  _262
REMARK  111  A    between atoms: _262  and  _263
REMARK  112  A    between atoms: _262  and  _265
REMARK  113  A    between atoms: _265  and  _266
REMARK  114  A    between atoms: _266  and  _267
REMARK  115  A    between atoms: _269  and  _271
REMARK  116  A    between atoms: _271  and  _272
REMARK  117  A    between atoms: _275  and  _277
REMARK  118  A    between atoms: _277  and  _278
REMARK  119  A    between atoms: _281  and  _283
REMARK  120  A    between atoms: _283  and  _284
REMARK  121  A    between atoms: _283  and  _286
REMARK  122  A    between atoms: _286  and  _287
REMARK  123  A    between atoms: _290  and  _292
REMARK  124  A    between atoms: _292  and  _293
REMARK  125  A    between atoms: _292  and  _295
REMARK  126  A    between atoms: _295  and  _296
REMARK  127  A    between atoms: _301  and  _303
REMARK  128  A    between atoms: _303  and  _304
REMARK  129  A    between atoms: _303  and  _306
REMARK  130  A    between atoms: _306  and  _307
REMARK  131  A    between atoms: _307  and  _308
REMARK  132  A    between atoms: _311  and  _313
REMARK  133  A    between atoms: _313  and  _314
REMARK  134  A    between atoms: _313  and  _316
REMARK  135  A    between atoms: _316  and  _317
REMARK  136  A    between atoms: _322  and  _324
REMARK  137  A    between atoms: _324  and  _325
REMARK  138  A    between atoms: _324  and  _327
REMARK  139  A    between atoms: _327  and  _328
REMARK  140  A    between atoms: _331  and  _333
REMARK  141  A    between atoms: _333  and  _334
REMARK  142  A    between atoms: _333  and  _336
REMARK  143  A    between atoms: _336  and  _337
REMARK  144  A    between atoms: _337  and  _338
REMARK  145  A    between atoms: _338  and  _339
REMARK  146  A    between atoms: _348  and  _350
REMARK  147  A    between atoms: _350  and  _351
REMARK  148  A    between atoms: _353  and  _355
REMARK  149  A    between atoms: _355  and  _356
REMARK  150  A    between atoms: _355  and  _358
REMARK  151  A    between atoms: _358  and  _359
REMARK  152  A    between atoms: _359  and  _360
REMARK  153  A    between atoms: _362  and  _364
REMARK  154  A    between atoms: _364  and  _365
REMARK  155  A    between atoms: _364  and  _367
REMARK  156  A    between atoms: _367  and  _368
REMARK  157  A    between atoms: _368  and  _369
REMARK  158  A    between atoms: _371  and  _373
REMARK  159  A    between atoms: _373  and  _374
REMARK  160  A    between atoms: _373  and  _376
REMARK  161  A    between atoms: _376  and  _377
REMARK  162  A    between atoms: _382  and  _384
REMARK  163  A    between atoms: _384  and  _385
REMARK  164  A    between atoms: _384  and  _387
REMARK  165  A    between atoms: _387  and  _388
REMARK  166  A    between atoms: _391  and  _393
REMARK  167  A    between atoms: _393  and  _394
REMARK  168  A    between atoms: _393  and  _396
REMARK  169  A    between atoms: _396  and  _397
REMARK  170  A    between atoms: _399  and  _401
REMARK  171  A    between atoms: _401  and  _402
REMARK  172  A    between atoms: _401  and  _404
REMARK  173  A    between atoms: _404  and  _405
REMARK  174  A    between atoms: _405  and  _406
REMARK  175  A    between atoms: _406  and  _407
REMARK  176  A    between atoms: _407  and  _408
REMARK  177  A    between atoms: _412  and  _414
REMARK  178  A    between atoms: _414  and  _415
REMARK  179  A    between atoms: _414  and  _417
REMARK  180  A    between atoms: _417  and  _418
REMARK  181  A    between atoms: _421  and  _423
REMARK  182  A    between atoms: _423  and  _424
REMARK  183  A    between atoms: _423  and  _426
REMARK  184  A    between atoms: _426  and  _427
REMARK  185  A    between atoms: _427  and  _428
REMARK  186  A    between atoms: _431  and  _433
REMARK  187  A    between atoms: _433  and  _434
REMARK  188  A    between atoms: _437  and  _439
REMARK  189  A    between atoms: _439  and  _440
REMARK  190  A    between atoms: _439  and  _442
REMARK  191  A    between atoms: _445  and  _447
REMARK  192  A    between atoms: _447  and  _448
REMARK  193  A    between atoms: _447  and  _450
REMARK  194  A    between atoms: _450  and  _451
REMARK  195  A    between atoms: _453  and  _455
REMARK  196  A    between atoms: _455  and  _456
REMARK  197  A    between atoms: _458  and  _460
REMARK  198  A    between atoms: _460  and  _461
REMARK  199  A    between atoms: _460  and  _463
REMARK  200  A    between atoms: _463  and  _464
REMARK  201  A    between atoms: _469  and  _471
REMARK  202  A    between atoms: _471  and  _472
REMARK  203  A    between atoms: _471  and  _474
REMARK  204  A    between atoms: _474  and  _475
REMARK  205  A    between atoms: _480  and  _481
REMARK  206  A    between atoms: _483  and  _485
REMARK  207  A    between atoms: _485  and  _486
REMARK  208  A    between atoms: _485  and  _488
REMARK  209  A    between atoms: _490  and  _492
REMARK  210  A    between atoms: _492  and  _493
REMARK  211  A    between atoms: _492  and  _495
REMARK  212  A    between atoms: _495  and  _496
REMARK  213  A    between atoms: _499  and  _501
REMARK  214  A    between atoms: _501  and  _502
REMARK  215  A    between atoms: _501  and  _504
REMARK  216  A    between atoms: _504  and  _505
REMARK  217  A    between atoms: _508  and  _510
REMARK  218  A    between atoms: _510  and  _511
REMARK  219  A    between atoms: _510  and  _513
REMARK  220  A    between atoms: _513  and  _514
REMARK  221  A    between atoms: _514  and  _515
REMARK  222  A    between atoms: _515  and  _516
REMARK  223  A    between atoms: _516  and  _517
REMARK  224  A    between atoms: _521  and  _523
REMARK  225  A    between atoms: _523  and  _524
REMARK  226  A    between atoms: _523  and  _526
REMARK  227  A    between atoms: _526  and  _527
REMARK  228  A    between atoms: _527  and  _528
REMARK  229  A    between atoms: _528  and  _529
REMARK  230  A    between atoms: _529  and  _530
REMARK  231  A    between atoms: _534  and  _536
REMARK  232  A    between atoms: _536  and  _537
REMARK  233  A    between atoms: _536  and  _539
REMARK  234  A    between atoms: _539  and  _540
REMARK  235  A    between atoms: _540  and  _541
REMARK  236  A    between atoms: _541  and  _542
REMARK  237  A    between atoms: _551  and  _553
REMARK  238  A    between atoms: _553  and  _554
REMARK  239  A    between atoms: _553  and  _556
REMARK  240  A    between atoms: _556  and  _557
REMARK  241  A    between atoms: _560  and  _562
REMARK  242  A    between atoms: _562  and  _563
REMARK  243  A    between atoms: _566  and  _568
REMARK  244  A    between atoms: _568  and  _569
REMARK  245  A    between atoms: _568  and  _571
REMARK  246  A    between atoms: _571  and  _572
REMARK  247  A    between atoms: _572  and  _573
REMARK                            x       y       z     vdW  Elec       q    Type
REMARK                         _______ _______ _______ _____ _____    ______ ____
ROOT
ATOM      1  NE  ARG A   1      -5.241  13.125  37.608  0.00  0.00    -0.265 N 
ATOM      2  CZ  ARG A   1      -5.852  12.153  38.284  0.00  0.00    +0.342 C 
ATOM      3  NH2 ARG A   1      -6.501  12.469  39.391  0.00  0.00    -0.292 N 
ATOM      4 HH21 ARG A   1      -6.987  11.730  39.938  0.00  0.00    +0.255 HD
ATOM      5 HH22 ARG A   1      -6.526  13.457  39.715  0.00  0.00    +0.255 HD
ATOM      6  NH1 ARG A   1      -5.838  10.884  37.890  0.00  0.00    -0.292 N 
ATOM      7 HH11 ARG A   1      -6.330  10.160  38.451  0.00  0.00    +0.255 HD
ATOM      8 HH12 ARG A   1      -5.335  10.615  37.020  0.00  0.00    +0.255 HD
ATOM      9  HE  ARG A   1      -5.323  14.088  37.992  0.00  0.00    +0.259 HD
ENDROOT
BRANCH   1  10
ATOM     10  CD  ARG A   1      -4.466  12.967  36.377  0.00  0.00    +0.174 C 
BRANCH  10  11
ATOM     11  CG  ARG A   1      -3.002  13.288  36.586  0.00  0.00    +0.045 C 
BRANCH  11  12
ATOM     12  CB  ARG A   1      -2.245  13.612  35.299  0.00  0.00    +0.029 C 
BRANCH  12  13
ATOM     13  CA  ARG A   1      -0.764  13.953  35.509  0.00  0.00    +0.133 C 
BRANCH  13  14
ATOM     14  N   ARG A   1      -0.132  14.314  34.247  0.00  0.00    -0.239 NA
ATOM     15  H   ARG A   1       0.379  13.587  33.707  0.00  0.00    +0.142 HD
ENDBRANCH  13  14
BRANCH  13  16
ATOM     16  C   ARG A   1      -0.009  12.774  36.085  0.00  0.00    +0.224 C 
ATOM     17  O   ARG A   1       0.311  11.835  35.371  0.00  0.00    -0.287 OA
ENDBRANCH  13  16
ENDBRANCH  12  13
ENDBRANCH  11  12
ENDBRANCH  10  11
ENDBRANCH   1  10
TORSDOF 6
REMARK  Name = ../refined-set-2016/3cd0/3cd0_pocket.pdb
REMARK  247 active torsions:
REMARK  status: ('A' for Active; 'I' for Inactive)
REMARK    1  A    between atoms: _1  and  _3
REMARK    2  A    between atoms: _3  and  _4
REMARK    3  A    between atoms: _3  and  _6
REMARK    4  A    between atoms: _6  and  _7
REMARK    5  A    between atoms: _10  and  _12
REMARK    6  A    between atoms: _12  and  _13
REMARK    7  A    between atoms: _12  and  _15
REMARK    8  A    between atoms: _15  and  _16
REMARK    9  A    between atoms: _16  and  _17
REMARK   10  A    between atoms: _20  and  _22
REMARK   11  A    between atoms: _22  and  _23
REMARK   12  A    between atoms: _25  and  _27
REMARK   13  A    between atoms: _27  and  _28
REMARK   14  A    between atoms: _27  and  _30
REMARK   15  A    between atoms: _32  and  _34
REMARK   16  A    between atoms: _34  and  _35
REMARK   17  A    between atoms: _34  and  _37
REMARK   18  A    between atoms: _37  and  _38
REMARK   19  A    between atoms: _41  and  _43
REMARK   20  A    between atoms: _43  and  _44
REMARK   21  A    between atoms: _43  and  _46
REMARK   22  A    between atoms: _49  and  _51
REMARK   23  A    between atoms: _51  and  _52
REMARK   24  A    between atoms: _55  and  _57
REMARK   25  A    between atoms: _57  and  _58
REMARK   26  A    between atoms: _57  and  _60
REMARK   27  A    between atoms: _60  and  _61
REMARK   28  A    between atoms: _63  and  _65
REMARK   29  A    between atoms: _65  and  _66
REMARK   30  A    between atoms: _65  and  _68
REMARK   31  A    between atoms: _68  and  _69
REMARK   32  A    between atoms: _72  and  _74
REMARK   33  A    between atoms: _74  and  _75
REMARK   34  A    between atoms: _74  and  _77
REMARK   35  A    between atoms: _77  and  _78
REMARK   36  A    between atoms: _83  and  _85
REMARK   37  A    between atoms: _85  and  _86
REMARK   38  A    between atoms: _85  and  _88
REMARK   39  A    between atoms: _88  and  _89
REMARK   40  A    between atoms: _89  and  _90
REMARK   41  A    between atoms: _90  and  _91
REMARK   42  A    between atoms: _100  and  _102
REMARK   43  A    between atoms: _102  and  _103
REMARK   44  A    between atoms: _105  and  _107
REMARK   45  A    between atoms: _107  and  _108
REMARK   46  A    between atoms: _107  and  _110
REMARK   47  A    between atoms: _113  and  _115
REMARK   48  A    between atoms: _115  and  _116
REMARK   49  A    between atoms: _115  and  _118
REMARK   50  A    between atoms: _118  and  _119
REMARK   51  A    between atoms: _122  and  _124
REMARK   52  A    between atoms: _124  and  _125
REMARK   53  A    between atoms: _124  and  _127
REMARK   54  A    between atoms: _127  and  _128
REMARK   55  A    between atoms: _128  and  _129
REMARK   56  A    between atoms: _129  and  _130
REMARK   57  A    between atoms: _130  and  _131
REMARK   58  A    between atoms: _135  and  _137
REMARK   59  A    between atoms: _137  and  _138
REMARK   60  A    between atoms: _137  and  _140
REMARK   61  A    between atoms: _140  and  _141
REMARK   62  A    between atoms: _141  and  _142
REMARK   63  A    between atoms: _142  and  _143
REMARK   64  A    between atoms: _143  and  _144
REMARK   65  A    between atoms: _148  and  _150
REMARK   66  A    between atoms: _150  and  _151
REMARK   67  A    between atoms: _150  and  _153
REMARK   68  A    between atoms: _153  and  _154
REMARK   69  A    between atoms: _159  and  _161
REMARK   70  A    between atoms: _161  and  _162
REMARK   71  A    between atoms: _161  and  _164
REMARK   72  A    between atoms: _164  and  _165
REMARK   73  A    between atoms: _170  and  _172
REMARK   74  A    between atoms: _172  and  _173
REMARK   75  A    between atoms: _176  and  _178
REMARK   76  A    between atoms: _178  and  _179
REMARK   77  A    between atoms: _178  and  _181
REMARK   78  A    between atoms: _181  and  _182
REMARK   79  A    between atoms: _187  and  _189
REMARK   80  A    between atoms: _189  and  _190
REMARK   81  A    between atoms: _193  and  _195
REMARK   82  A    between atoms: _195  and  _196
REMARK   83  A    between atoms: _199  and  _201
REMARK   84  A    between atoms: _201  and  _202
REMARK   85  A    between atoms: _201  and  _204
REMARK   86  A    between atoms: _204  and  _205
REMARK   87  A    between atoms: _210  and  _212
REMARK   88  A    between atoms: _212  and  _213
REMARK   89  A    between atoms: _212  and  _215
REMARK   90  A    between atoms: _215  and  _216
REMARK   91  A    between atoms: _219  and  _221
REMARK   92  A    between atoms: _221  and  _222
REMARK   93  A    between atoms: _224  and  _226
REMARK   94  A    between atoms: _226  and  _227
REMARK   95  A    between atoms: _226  and  _229
REMARK   96  A    between atoms: _229  and  _230
REMARK   97  A    between atoms: _230  and  _231
REMARK   98  A    between atoms: _234  and  _236
REMARK   99  A    between atoms: _236  and  _237
REMARK  100  A    between atoms: _236  and  _239
REMARK  101  A    between atoms: _239  and  _240
REMARK  102  A    between atoms: _243  and  _245
REMARK  103  A    between atoms: _245  and  _246
REMARK  104  A    between atoms: _245  and  _248
REMARK  105  A    between atoms: _248  and  _249
REMARK  106  A    between atoms: _251  and  _253
REMARK  107  A    between atoms: _253  and  _254
REMARK  108  A    between atoms: _253  and  _256
REMARK  109  A    between atoms: _256  and  _257
REMARK  110  A    between atoms: _260  and  _262
REMARK  111  A    between atoms: _262  and  _263
REMARK  112  A    between atoms: _262  and  _265
REMARK  113  A    between atoms: _265  and  _266
REMARK  114  A    between atoms: _266  and  _267
REMARK  115  A    between atoms: _269  and  _271
REMARK  116  A    between atoms: _271  and  _272
REMARK  117  A    between atoms: _275  and  _277
REMARK  118  A    between atoms: _277  and  _278
REMARK  119  A    between atoms: _281  and  _283
REMARK  120  A    between atoms: _283  and  _284
REMARK  121  A    between atoms: _283  and  _286
REMARK  122  A    between atoms: _286  and  _287
REMARK  123  A    between atoms: _290  and  _292
REMARK  124  A    between atoms: _292  and  _293
REMARK  125  A    between atoms: _292  and  _295
REMARK  126  A    between atoms: _295  and  _296
REMARK  127  A    between atoms: _301  and  _303
REMARK  128  A    between atoms: _303  and  _304
REMARK  129  A    between atoms: _303  and  _306
REMARK  130  A    between atoms: _306  and  _307
REMARK  131  A    between atoms: _307  and  _308
REMARK  132  A    between atoms: _311  and  _313
REMARK  133  A    between atoms: _313  and  _314
REMARK  134  A    between atoms: _313  and  _316
REMARK  135  A    between atoms: _316  and  _317
REMARK  136  A    between atoms: _322  and  _324
REMARK  137  A    between atoms: _324  and  _325
REMARK  138  A    between atoms: _324  and  _327
REMARK  139  A    between atoms: _327  and  _328
REMARK  140  A    between atoms: _331  and  _333
REMARK  141  A    between atoms: _333  and  _334
REMARK  142  A    between atoms: _333  and  _336
REMARK  143  A    between atoms: _336  and  _337
REMARK  144  A    between atoms: _337  and  _338
REMARK  145  A    between atoms: _338  and  _339
REMARK  146  A    between atoms: _348  and  _350
REMARK  147  A    between atoms: _350  and  _351
REMARK  148  A    between atoms: _353  and  _355
REMARK  149  A    between atoms: _355  and  _356
REMARK  150  A    between atoms: _355  and  _358
REMARK  151  A    between atoms: _358  and  _359
REMARK  152  A    between atoms: _359  and  _360
REMARK  153  A    between atoms: _362  and  _364
REMARK  154  A    between atoms: _364  and  _365
REMARK  155  A    between atoms: _364  and  _367
REMARK  156  A    between atoms: _367  and  _368
REMARK  157  A    between atoms: _368  and  _369
REMARK  158  A    between atoms: _371  and  _373
REMARK  159  A    between atoms: _373  and  _374
REMARK  160  A    between atoms: _373  and  _376
REMARK  161  A    between atoms: _376  and  _377
REMARK  162  A    between atoms: _382  and  _384
REMARK  163  A    between atoms: _384  and  _385
REMARK  164  A    between atoms: _384  and  _387
REMARK  165  A    between atoms: _387  and  _388
REMARK  166  A    between atoms: _391  and  _393
REMARK  167  A    between atoms: _393  and  _394
REMARK  168  A    between atoms: _393  and  _396
REMARK  169  A    between atoms: _396  and  _397
REMARK  170  A    between atoms: _399  and  _401
REMARK  171  A    between atoms: _401  and  _402
REMARK  172  A    between atoms: _401  and  _404
REMARK  173  A    between atoms: _404  and  _405
REMARK  174  A    between atoms: _405  and  _406
REMARK  175  A    between atoms: _406  and  _407
REMARK  176  A    between atoms: _407  and  _408
REMARK  177  A    between atoms: _412  and  _414
REMARK  178  A    between atoms: _414  and  _415
REMARK  179  A    between atoms: _414  and  _417
REMARK  180  A    between atoms: _417  and  _418
REMARK  181  A    between atoms: _421  and  _423
REMARK  182  A    between atoms: _423  and  _424
REMARK  183  A    between atoms: _423  and  _426
REMARK  184  A    between atoms: _426  and  _427
REMARK  185  A    between atoms: _427  and  _428
REMARK  186  A    between atoms: _431  and  _433
REMARK  187  A    between atoms: _433  and  _434
REMARK  188  A    between atoms: _437  and  _439
REMARK  189  A    between atoms: _439  and  _440
REMARK  190  A    between atoms: _439  and  _442
REMARK  191  A    between atoms: _445  and  _447
REMARK  192  A    between atoms: _447  and  _448
REMARK  193  A    between atoms: _447  and  _450
REMARK  194  A    between atoms: _450  and  _451
REMARK  195  A    between atoms: _453  and  _455
REMARK  196  A    between atoms: _455  and  _456
REMARK  197  A    between atoms: _458  and  _460
REMARK  198  A    between atoms: _460  and  _461
REMARK  199  A    between atoms: _460  and  _463
REMARK  200  A    between atoms: _463  and  _464
REMARK  201  A    between atoms: _469  and  _471
REMARK  202  A    between atoms: _471  and  _472
REMARK  203  A    between atoms: _471  and  _474
REMARK  204  A    between atoms: _474  and  _475
REMARK  205  A    between atoms: _480  and  _481
REMARK  206  A    between atoms: _483  and  _485
REMARK  207  A    between atoms: _485  and  _486
REMARK  208  A    between atoms: _485  and  _488
REMARK  209  A    between atoms: _490  and  _492
REMARK  210  A    between atoms: _492  and  _493
REMARK  211  A    between atoms: _492  and  _495
REMARK  212  A    between atoms: _495  and  _496
REMARK  213  A    between atoms: _499  and  _501
REMARK  214  A    between atoms: _501  and  _502
REMARK  215  A    between atoms: _501  and  _504
REMARK  216  A    between atoms: _504  and  _505
REMARK  217  A    between atoms: _508  and  _510
REMARK  218  A    between atoms: _510  and  _511
REMARK  219  A    between atoms: _510  and  _513
REMARK  220  A    between atoms: _513  and  _514
REMARK  221  A    between atoms: _514  and  _515
REMARK  222  A    between atoms: _515  and  _516
REMARK  223  A    between atoms: _516  and  _517
REMARK  224  A    between atoms: _521  and  _523
REMARK  225  A    between atoms: _523  and  _524
REMARK  226  A    between atoms: _523  and  _526
REMARK  227  A    between atoms: _526  and  _527
REMARK  228  A    between atoms: _527  and  _528
REMARK  229  A    between atoms: _528  and  _529
REMARK  230  A    between atoms: _529  and  _530
REMARK  231  A    between atoms: _534  and  _536
REMARK  232  A    between atoms: _536  and  _537
REMARK  233  A    between atoms: _536  and  _539
REMARK  234  A    between atoms: _539  and  _540
REMARK  235  A    between atoms: _540  and  _541
REMARK  236  A    between atoms: _541  and  _542
REMARK  237  A    between atoms: _551  and  _553
REMARK  238  A    between atoms: _553  and  _554
REMARK  239  A    between atoms: _553  and  _556
REMARK  240  A    between atoms: _556  and  _557
REMARK  241  A    between atoms: _560  and  _562
REMARK  242  A    between atoms: _562  and  _563
REMARK  243  A    between atoms: _566  and  _568
REMARK  244  A    between atoms: _568  and  _569
REMARK  245  A    between atoms: _568  and  _571
REMARK  246  A    between atoms: _571  and  _572
REMARK  247  A    between atoms: _572  and  _573
REMARK                            x       y       z     vdW  Elec       q    Type
REMARK                         _______ _______ _______ _____ _____    ______ ____
ROOT
ATOM      1  CA  ASP A   1      -5.387   0.990  40.501  0.00  0.00    +0.144 C 
ENDROOT
BRANCH   1   2
ATOM      2  N   ASP A   1      -3.989   0.856  40.883  0.00  0.00    -0.239 NA
ATOM      3  H   ASP A   1      -3.409   1.717  40.949  0.00  0.00    +0.142 HD
ENDBRANCH   1   2
BRANCH   1   4
ATOM      4  C   ASP A   1      -5.442   0.772  39.002  0.00  0.00    +0.225 C 
ATOM      5  O   ASP A   1      -5.052   1.642  38.244  0.00  0.00    -0.287 OA
ENDBRANCH   1   4
BRANCH   1   6
ATOM      6  CB  ASP A   1      -5.892   2.389  40.856  0.00  0.00    +0.139 C 
BRANCH   6   7
ATOM      7  CG  ASP A   1      -7.410   2.502  40.828  0.00  0.00    +0.367 C 
ATOM      8  OD2 ASP A   1      -8.022   3.268  41.609  0.00  0.00    -0.246 OA
ATOM      9  OD1 ASP A   1      -8.074   1.837  39.994  0.00  0.00    -0.246 OA
ENDBRANCH   6   7
ENDBRANCH   1   6
TORSDOF 4
REMARK  Name = ../refined-set-2016/3cd0/3cd0_pocket.pdb
REMARK  247 active torsions:
REMARK  status: ('A' for Active; 'I' for Inactive)
REMARK    1  A    between atoms: _1  and  _3
REMARK    2  A    between atoms: _3  and  _4
REMARK    3  A    between atoms: _3  and  _6
REMARK    4  A    between atoms: _6  and  _7
REMARK    5  A    between atoms: _10  and  _12
REMARK    6  A    between atoms: _12  and  _13
REMARK    7  A    between atoms: _12  and  _15
REMARK    8  A    between atoms: _15  and  _16
REMARK    9  A    between atoms: _16  and  _17
REMARK   10  A    between atoms: _20  and  _22
REMARK   11  A    between atoms: _22  and  _23
REMARK   12  A    between atoms: _25  and  _27
REMARK   13  A    between atoms: _27  and  _28
REMARK   14  A    between atoms: _27  and  _30
REMARK   15  A    between atoms: _32  and  _34
REMARK   16  A    between atoms: _34  and  _35
REMARK   17  A    between atoms: _34  and  _37
REMARK   18  A    between atoms: _37  and  _38
REMARK   19  A    between atoms: _41  and  _43
REMARK   20  A    between atoms: _43  and  _44
REMARK   21  A    between atoms: _43  and  _46
REMARK   22  A    between atoms: _49  and  _51
REMARK   23  A    between atoms: _51  and  _52
REMARK   24  A    between atoms: _55  and  _57
REMARK   25  A    between atoms: _57  and  _58
REMARK   26  A    between atoms: _57  and  _60
REMARK   27  A    between atoms: _60  and  _61
REMARK   28  A    between atoms: _63  and  _65
REMARK   29  A    between atoms: _65  and  _66
REMARK   30  A    between atoms: _65  and  _68
REMARK   31  A    between atoms: _68  and  _69
REMARK   32  A    between atoms: _72  and  _74
REMARK   33  A    between atoms: _74  and  _75
REMARK   34  A    between atoms: _74  and  _77
REMARK   35  A    between atoms: _77  and  _78
REMARK   36  A    between atoms: _83  and  _85
REMARK   37  A    between atoms: _85  and  _86
REMARK   38  A    between atoms: _85  and  _88
REMARK   39  A    between atoms: _88  and  _89
REMARK   40  A    between atoms: _89  and  _90
REMARK   41  A    between atoms: _90  and  _91
REMARK   42  A    between atoms: _100  and  _102
REMARK   43  A    between atoms: _102  and  _103
REMARK   44  A    between atoms: _105  and  _107
REMARK   45  A    between atoms: _107  and  _108
REMARK   46  A    between atoms: _107  and  _110
REMARK   47  A    between atoms: _113  and  _115
REMARK   48  A    between atoms: _115  and  _116
REMARK   49  A    between atoms: _115  and  _118
REMARK   50  A    between atoms: _118  and  _119
REMARK   51  A    between atoms: _122  and  _124
REMARK   52  A    between atoms: _124  and  _125
REMARK   53  A    between atoms: _124  and  _127
REMARK   54  A    between atoms: _127  and  _128
REMARK   55  A    between atoms: _128  and  _129
REMARK   56  A    between atoms: _129  and  _130
REMARK   57  A    between atoms: _130  and  _131
REMARK   58  A    between atoms: _135  and  _137
REMARK   59  A    between atoms: _137  and  _138
REMARK   60  A    between atoms: _137  and  _140
REMARK   61  A    between atoms: _140  and  _141
REMARK   62  A    between atoms: _141  and  _142
REMARK   63  A    between atoms: _142  and  _143
REMARK   64  A    between atoms: _143  and  _144
REMARK   65  A    between atoms: _148  and  _150
REMARK   66  A    between atoms: _150  and  _151
REMARK   67  A    between atoms: _150  and  _153
REMARK   68  A    between atoms: _153  and  _154
REMARK   69  A    between atoms: _159  and  _161
REMARK   70  A    between atoms: _161  and  _162
REMARK   71  A    between atoms: _161  and  _164
REMARK   72  A    between atoms: _164  and  _165
REMARK   73  A    between atoms: _170  and  _172
REMARK   74  A    between atoms: _172  and  _173
REMARK   75  A    between atoms: _176  and  _178
REMARK   76  A    between atoms: _178  and  _179
REMARK   77  A    between atoms: _178  and  _181
REMARK   78  A    between atoms: _181  and  _182
REMARK   79  A    between atoms: _187  and  _189
REMARK   80  A    between atoms: _189  and  _190
REMARK   81  A    between atoms: _193  and  _195
REMARK   82  A    between atoms: _195  and  _196
REMARK   83  A    between atoms: _199  and  _201
REMARK   84  A    between atoms: _201  and  _202
REMARK   85  A    between atoms: _201  and  _204
REMARK   86  A    between atoms: _204  and  _205
REMARK   87  A    between atoms: _210  and  _212
REMARK   88  A    between atoms: _212  and  _213
REMARK   89  A    between atoms: _212  and  _215
REMARK   90  A    between atoms: _215  and  _216
REMARK   91  A    between atoms: _219  and  _221
REMARK   92  A    between atoms: _221  and  _222
REMARK   93  A    between atoms: _224  and  _226
REMARK   94  A    between atoms: _226  and  _227
REMARK   95  A    between atoms: _226  and  _229
REMARK   96  A    between atoms: _229  and  _230
REMARK   97  A    between atoms: _230  and  _231
REMARK   98  A    between atoms: _234  and  _236
REMARK   99  A    between atoms: _236  and  _237
REMARK  100  A    between atoms: _236  and  _239
REMARK  101  A    between atoms: _239  and  _240
REMARK  102  A    between atoms: _243  and  _245
REMARK  103  A    between atoms: _245  and  _246
REMARK  104  A    between atoms: _245  and  _248
REMARK  105  A    between atoms: _248  and  _249
REMARK  106  A    between atoms: _251  and  _253
REMARK  107  A    between atoms: _253  and  _254
REMARK  108  A    between atoms: _253  and  _256
REMARK  109  A    between atoms: _256  and  _257
REMARK  110  A    between atoms: _260  and  _262
REMARK  111  A    between atoms: _262  and  _263
REMARK  112  A    between atoms: _262  and  _265
REMARK  113  A    between atoms: _265  and  _266
REMARK  114  A    between atoms: _266  and  _267
REMARK  115  A    between atoms: _269  and  _271
REMARK  116  A    between atoms: _271  and  _272
REMARK  117  A    between atoms: _275  and  _277
REMARK  118  A    between atoms: _277  and  _278
REMARK  119  A    between atoms: _281  and  _283
REMARK  120  A    between atoms: _283  and  _284
REMARK  121  A    between atoms: _283  and  _286
REMARK  122  A    between atoms: _286  and  _287
REMARK  123  A    between atoms: _290  and  _292
REMARK  124  A    between atoms: _292  and  _293
REMARK  125  A    between atoms: _292  and  _295
REMARK  126  A    between atoms: _295  and  _296
REMARK  127  A    between atoms: _301  and  _303
REMARK  128  A    between atoms: _303  and  _304
REMARK  129  A    between atoms: _303  and  _306
REMARK  130  A    between atoms: _306  and  _307
REMARK  131  A    between atoms: _307  and  _308
REMARK  132  A    between atoms: _311  and  _313
REMARK  133  A    between atoms: _313  and  _314
REMARK  134  A    between atoms: _313  and  _316
REMARK  135  A    between atoms: _316  and  _317
REMARK  136  A    between atoms: _322  and  _324
REMARK  137  A    between atoms: _324  and  _325
REMARK  138  A    between atoms: _324  and  _327
REMARK  139  A    between atoms: _327  and  _328
REMARK  140  A    between atoms: _331  and  _333
REMARK  141  A    between atoms: _333  and  _334
REMARK  142  A    between atoms: _333  and  _336
REMARK  143  A    between atoms: _336  and  _337
REMARK  144  A    between atoms: _337  and  _338
REMARK  145  A    between atoms: _338  and  _339
REMARK  146  A    between atoms: _348  and  _350
REMARK  147  A    between atoms: _350  and  _351
REMARK  148  A    between atoms: _353  and  _355
REMARK  149  A    between atoms: _355  and  _356
REMARK  150  A    between atoms: _355  and  _358
REMARK  151  A    between atoms: _358  and  _359
REMARK  152  A    between atoms: _359  and  _360
REMARK  153  A    between atoms: _362  and  _364
REMARK  154  A    between atoms: _364  and  _365
REMARK  155  A    between atoms: _364  and  _367
REMARK  156  A    between atoms: _367  and  _368
REMARK  157  A    between atoms: _368  and  _369
REMARK  158  A    between atoms: _371  and  _373
REMARK  159  A    between atoms: _373  and  _374
REMARK  160  A    between atoms: _373  and  _376
REMARK  161  A    between atoms: _376  and  _377
REMARK  162  A    between atoms: _382  and  _384
REMARK  163  A    between atoms: _384  and  _385
REMARK  164  A    between atoms: _384  and  _387
REMARK  165  A    between atoms: _387  and  _388
REMARK  166  A    between atoms: _391  and  _393
REMARK  167  A    between atoms: _393  and  _394
REMARK  168  A    between atoms: _393  and  _396
REMARK  169  A    between atoms: _396  and  _397
REMARK  170  A    between atoms: _399  and  _401
REMARK  171  A    between atoms: _401  and  _402
REMARK  172  A    between atoms: _401  and  _404
REMARK  173  A    between atoms: _404  and  _405
REMARK  174  A    between atoms: _405  and  _406
REMARK  175  A    between atoms: _406  and  _407
REMARK  176  A    between atoms: _407  and  _408
REMARK  177  A    between atoms: _412  and  _414
REMARK  178  A    between atoms: _414  and  _415
REMARK  179  A    between atoms: _414  and  _417
REMARK  180  A    between atoms: _417  and  _418
REMARK  181  A    between atoms: _421  and  _423
REMARK  182  A    between atoms: _423  and  _424
REMARK  183  A    between atoms: _423  and  _426
REMARK  184  A    between atoms: _426  and  _427
REMARK  185  A    between atoms: _427  and  _428
REMARK  186  A    between atoms: _431  and  _433
REMARK  187  A    between atoms: _433  and  _434
REMARK  188  A    between atoms: _437  and  _439
REMARK  189  A    between atoms: _439  and  _440
REMARK  190  A    between atoms: _439  and  _442
REMARK  191  A    between atoms: _445  and  _447
REMARK  192  A    between atoms: _447  and  _448
REMARK  193  A    between atoms: _447  and  _450
REMARK  194  A    between atoms: _450  and  _451
REMARK  195  A    between atoms: _453  and  _455
REMARK  196  A    between atoms: _455  and  _456
REMARK  197  A    between atoms: _458  and  _460
REMARK  198  A    between atoms: _460  and  _461
REMARK  199  A    between atoms: _460  and  _463
REMARK  200  A    between atoms: _463  and  _464
REMARK  201  A    between atoms: _469  and  _471
REMARK  202  A    between atoms: _471  and  _472
REMARK  203  A    between atoms: _471  and  _474
REMARK  204  A    between atoms: _474  and  _475
REMARK  205  A    between atoms: _480  and  _481
REMARK  206  A    between atoms: _483  and  _485
REMARK  207  A    between atoms: _485  and  _486
REMARK  208  A    between atoms: _485  and  _488
REMARK  209  A    between atoms: _490  and  _492
REMARK  210  A    between atoms: _492  and  _493
REMARK  211  A    between atoms: _492  and  _495
REMARK  212  A    between atoms: _495  and  _496
REMARK  213  A    between atoms: _499  and  _501
REMARK  214  A    between atoms: _501  and  _502
REMARK  215  A    between atoms: _501  and  _504
REMARK  216  A    between atoms: _504  and  _505
REMARK  217  A    between atoms: _508  and  _510
REMARK  218  A    between atoms: _510  and  _511
REMARK  219  A    between atoms: _510  and  _513
REMARK  220  A    between atoms: _513  and  _514
REMARK  221  A    between atoms: _514  and  _515
REMARK  222  A    between atoms: _515  and  _516
REMARK  223  A    between atoms: _516  and  _517
REMARK  224  A    between atoms: _521  and  _523
REMARK  225  A    between atoms: _523  and  _524
REMARK  226  A    between atoms: _523  and  _526
REMARK  227  A    between atoms: _526  and  _527
REMARK  228  A    between atoms: _527  and  _528
REMARK  229  A    between atoms: _528  and  _529
REMARK  230  A    between atoms: _529  and  _530
REMARK  231  A    between atoms: _534  and  _536
REMARK  232  A    between atoms: _536  and  _537
REMARK  233  A    between atoms: _536  and  _539
REMARK  234  A    between atoms: _539  and  _540
REMARK  235  A    between atoms: _540  and  _541
REMARK  236  A    between atoms: _541  and  _542
REMARK  237  A    between atoms: _551  and  _553
REMARK  238  A    between atoms: _553  and  _554
REMARK  239  A    between atoms: _553  and  _556
REMARK  240  A    between atoms: _556  and  _557
REMARK  241  A    between atoms: _560  and  _562
REMARK  242  A    between atoms: _562  and  _563
REMARK  243  A    between atoms: _566  and  _568
REMARK  244  A    between atoms: _568  and  _569
REMARK  245  A    between atoms: _568  and  _571
REMARK  246  A    between atoms: _571  and  _572
REMARK  247  A    between atoms: _572  and  _573
REMARK                            x       y       z     vdW  Elec       q    Type
REMARK                         _______ _______ _______ _____ _____    ______ ____
ROOT
ATOM      1  CA  GLN A   2      -6.084   4.348  35.942  0.00  0.00    +0.137 C 
ENDROOT
BRANCH   1   3
ATOM      2  C   ALA A   1      -7.991   2.860  35.681  0.00  0.00    +0.238 C 
ATOM      3  N   GLN A   2      -6.886   3.192  36.335  0.00  0.00    -0.298 N 
ATOM      4  H   GLN A   2      -6.583   2.616  37.146  0.00  0.00    +0.150 HD
ATOM      5  O   ALA A   1      -8.446   3.531  34.761  0.00  0.00    -0.274 OA
BRANCH   2   6
ATOM      6  CA  ALA A   1      -8.694   1.586  36.122  0.00  0.00    +0.145 C 
ATOM      7  CB  ALA A   1      -9.939   1.919  36.932  0.00  0.00    +0.028 C 
BRANCH   6   8
ATOM      8  N   ALA A   1      -7.796   0.706  36.875  0.00  0.00    -0.238 NA
ATOM      9  H   ALA A   1      -7.959   0.567  37.893  0.00  0.00    +0.142 HD
ENDBRANCH   6   8
ENDBRANCH   2   6
ENDBRANCH   1   3
BRANCH   1  10
ATOM     10  C   GLN A   2      -5.195   4.073  34.727  0.00  0.00    +0.227 C 
ATOM     11  O   GLN A   2      -4.454   4.942  34.294  0.00  0.00    -0.286 OA
ENDBRANCH   1  10
BRANCH   1  12
ATOM     12  CB  GLN A   2      -5.251   4.866  37.124  0.00  0.00    +0.037 C 
BRANCH  12  13
ATOM     13  CG  GLN A   2      -6.088   5.647  38.127  0.00  0.00    +0.087 C 
BRANCH  13  14
ATOM     14  CD  GLN A   2      -5.264   6.287  39.227  0.00  0.00    +0.219 C 
ATOM     15  NE2 GLN A   2      -5.699   7.464  39.695  0.00  0.00    -0.329 N 
ATOM     16 HE21 GLN A   2      -5.178   7.946  40.455  0.00  0.00    +0.145 HD
ATOM     17 HE22 GLN A   2      -6.558   7.896  39.298  0.00  0.00    +0.145 HD
ATOM     18  OE1 GLN A   2      -4.253   5.724  39.656  0.00  0.00    -0.275 OA
ENDBRANCH  13  14
ENDBRANCH  12  13
ENDBRANCH   1  12
TORSDOF 7
REMARK  Name = ../refined-set-2016/3cd0/3cd0_pocket.pdb
REMARK  247 active torsions:
REMARK  status: ('A' for Active; 'I' for Inactive)
REMARK    1  A    between atoms: _1  and  _3
REMARK    2  A    between atoms: _3  and  _4
REMARK    3  A    between atoms: _3  and  _6
REMARK    4  A    between atoms: _6  and  _7
REMARK    5  A    between atoms: _10  and  _12
REMARK    6  A    between atoms: _12  and  _13
REMARK    7  A    between atoms: _12  and  _15
REMARK    8  A    between atoms: _15  and  _16
REMARK    9  A    between atoms: _16  and  _17
REMARK   10  A    between atoms: _20  and  _22
REMARK   11  A    between atoms: _22  and  _23
REMARK   12  A    between atoms: _25  and  _27
REMARK   13  A    between atoms: _27  and  _28
REMARK   14  A    between atoms: _27  and  _30
REMARK   15  A    between atoms: _32  and  _34
REMARK   16  A    between atoms: _34  and  _35
REMARK   17  A    between atoms: _34  and  _37
REMARK   18  A    between atoms: _37  and  _38
REMARK   19  A    between atoms: _41  and  _43
REMARK   20  A    between atoms: _43  and  _44
REMARK   21  A    between atoms: _43  and  _46
REMARK   22  A    between atoms: _49  and  _51
REMARK   23  A    between atoms: _51  and  _52
REMARK   24  A    between atoms: _55  and  _57
REMARK   25  A    between atoms: _57  and  _58
REMARK   26  A    between atoms: _57  and  _60
REMARK   27  A    between atoms: _60  and  _61
REMARK   28  A    between atoms: _63  and  _65
REMARK   29  A    between atoms: _65  and  _66
REMARK   30  A    between atoms: _65  and  _68
REMARK   31  A    between atoms: _68  and  _69
REMARK   32  A    between atoms: _72  and  _74
REMARK   33  A    between atoms: _74  and  _75
REMARK   34  A    between atoms: _74  and  _77
REMARK   35  A    between atoms: _77  and  _78
REMARK   36  A    between atoms: _83  and  _85
REMARK   37  A    between atoms: _85  and  _86
REMARK   38  A    between atoms: _85  and  _88
REMARK   39  A    between atoms: _88  and  _89
REMARK   40  A    between atoms: _89  and  _90
REMARK   41  A    between atoms: _90  and  _91
REMARK   42  A    between atoms: _100  and  _102
REMARK   43  A    between atoms: _102  and  _103
REMARK   44  A    between atoms: _105  and  _107
REMARK   45  A    between atoms: _107  and  _108
REMARK   46  A    between atoms: _107  and  _110
REMARK   47  A    between atoms: _113  and  _115
REMARK   48  A    between atoms: _115  and  _116
REMARK   49  A    between atoms: _115  and  _118
REMARK   50  A    between atoms: _118  and  _119
REMARK   51  A    between atoms: _122  and  _124
REMARK   52  A    between atoms: _124  and  _125
REMARK   53  A    between atoms: _124  and  _127
REMARK   54  A    between atoms: _127  and  _128
REMARK   55  A    between atoms: _128  and  _129
REMARK   56  A    between atoms: _129  and  _130
REMARK   57  A    between atoms: _130  and  _131
REMARK   58  A    between atoms: _135  and  _137
REMARK   59  A    between atoms: _137  and  _138
REMARK   60  A    between atoms: _137  and  _140
REMARK   61  A    between atoms: _140  and  _141
REMARK   62  A    between atoms: _141  and  _142
REMARK   63  A    between atoms: _142  and  _143
REMARK   64  A    between atoms: _143  and  _144
REMARK   65  A    between atoms: _148  and  _150
REMARK   66  A    between atoms: _150  and  _151
REMARK   67  A    between atoms: _150  and  _153
REMARK   68  A    between atoms: _153  and  _154
REMARK   69  A    between atoms: _159  and  _161
REMARK   70  A    between atoms: _161  and  _162
REMARK   71  A    between atoms: _161  and  _164
REMARK   72  A    between atoms: _164  and  _165
REMARK   73  A    between atoms: _170  and  _172
REMARK   74  A    between atoms: _172  and  _173
REMARK   75  A    between atoms: _176  and  _178
REMARK   76  A    between atoms: _178  and  _179
REMARK   77  A    between atoms: _178  and  _181
REMARK   78  A    between atoms: _181  and  _182
REMARK   79  A    between atoms: _187  and  _189
REMARK   80  A    between atoms: _189  and  _190
REMARK   81  A    between atoms: _193  and  _195
REMARK   82  A    between atoms: _195  and  _196
REMARK   83  A    between atoms: _199  and  _201
REMARK   84  A    between atoms: _201  and  _202
REMARK   85  A    between atoms: _201  and  _204
REMARK   86  A    between atoms: _204  and  _205
REMARK   87  A    between atoms: _210  and  _212
REMARK   88  A    between atoms: _212  and  _213
REMARK   89  A    between atoms: _212  and  _215
REMARK   90  A    between atoms: _215  and  _216
REMARK   91  A    between atoms: _219  and  _221
REMARK   92  A    between atoms: _221  and  _222
REMARK   93  A    between atoms: _224  and  _226
REMARK   94  A    between atoms: _226  and  _227
REMARK   95  A    between atoms: _226  and  _229
REMARK   96  A    between atoms: _229  and  _230
REMARK   97  A    between atoms: _230  and  _231
REMARK   98  A    between atoms: _234  and  _236
REMARK   99  A    between atoms: _236  and  _237
REMARK  100  A    between atoms: _236  and  _239
REMARK  101  A    between atoms: _239  and  _240
REMARK  102  A    between atoms: _243  and  _245
REMARK  103  A    between atoms: _245  and  _246
REMARK  104  A    between atoms: _245  and  _248
REMARK  105  A    between atoms: _248  and  _249
REMARK  106  A    between atoms: _251  and  _253
REMARK  107  A    between atoms: _253  and  _254
REMARK  108  A    between atoms: _253  and  _256
REMARK  109  A    between atoms: _256  and  _257
REMARK  110  A    between atoms: _260  and  _262
REMARK  111  A    between atoms: _262  and  _263
REMARK  112  A    between atoms: _262  and  _265
REMARK  113  A    between atoms: _265  and  _266
REMARK  114  A    between atoms: _266  and  _267
REMARK  115  A    between atoms: _269  and  _271
REMARK  116  A    between atoms: _271  and  _272
REMARK  117  A    between atoms: _275  and  _277
REMARK  118  A    between atoms: _277  and  _278
REMARK  119  A    between atoms: _281  and  _283
REMARK  120  A    between atoms: _283  and  _284
REMARK  121  A    between atoms: _283  and  _286
REMARK  122  A    between atoms: _286  and  _287
REMARK  123  A    between atoms: _290  and  _292
REMARK  124  A    between atoms: _292  and  _293
REMARK  125  A    between atoms: _292  and  _295
REMARK  126  A    between atoms: _295  and  _296
REMARK  127  A    between atoms: _301  and  _303
REMARK  128  A    between atoms: _303  and  _304
REMARK  129  A    between atoms: _303  and  _306
REMARK  130  A    between atoms: _306  and  _307
REMARK  131  A    between atoms: _307  and  _308
REMARK  132  A    between atoms: _311  and  _313
REMARK  133  A    between atoms: _313  and  _314
REMARK  134  A    between atoms: _313  and  _316
REMARK  135  A    between atoms: _316  and  _317
REMARK  136  A    between atoms: _322  and  _324
REMARK  137  A    between atoms: _324  and  _325
REMARK  138  A    between atoms: _324  and  _327
REMARK  139  A    between atoms: _327  and  _328
REMARK  140  A    between atoms: _331  and  _333
REMARK  141  A    between atoms: _333  and  _334
REMARK  142  A    between atoms: _333  and  _336
REMARK  143  A    between atoms: _336  and  _337
REMARK  144  A    between atoms: _337  and  _338
REMARK  145  A    between atoms: _338  and  _339
REMARK  146  A    between atoms: _348  and  _350
REMARK  147  A    between atoms: _350  and  _351
REMARK  148  A    between atoms: _353  and  _355
REMARK  149  A    between atoms: _355  and  _356
REMARK  150  A    between atoms: _355  and  _358
REMARK  151  A    between atoms: _358  and  _359
REMARK  152  A    between atoms: _359  and  _360
REMARK  153  A    between atoms: _362  and  _364
REMARK  154  A    between atoms: _364  and  _365
REMARK  155  A    between atoms: _364  and  _367
REMARK  156  A    between atoms: _367  and  _368
REMARK  157  A    between atoms: _368  and  _369
REMARK  158  A    between atoms: _371  and  _373
REMARK  159  A    between atoms: _373  and  _374
REMARK  160  A    between atoms: _373  and  _376
REMARK  161  A    between atoms: _376  and  _377
REMARK  162  A    between atoms: _382  and  _384
REMARK  163  A    between atoms: _384  and  _385
REMARK  164  A    between atoms: _384  and  _387
REMARK  165  A    between atoms: _387  and  _388
REMARK  166  A    between atoms: _391  and  _393
REMARK  167  A    between atoms: _393  and  _394
REMARK  168  A    between atoms: _393  and  _396
REMARK  169  A    between atoms: _396  and  _397
REMARK  170  A    between atoms: _399  and  _401
REMARK  171  A    between atoms: _401  and  _402
REMARK  172  A    between atoms: _401  and  _404
REMARK  173  A    between atoms: _404  and  _405
REMARK  174  A    between atoms: _405  and  _406
REMARK  175  A    between atoms: _406  and  _407
REMARK  176  A    between atoms: _407  and  _408
REMARK  177  A    between atoms: _412  and  _414
REMARK  178  A    between atoms: _414  and  _415
REMARK  179  A    between atoms: _414  and  _417
REMARK  180  A    between atoms: _417  and  _418
REMARK  181  A    between atoms: _421  and  _423
REMARK  182  A    between atoms: _423  and  _424
REMARK  183  A    between atoms: _423  and  _426
REMARK  184  A    between atoms: _426  and  _427
REMARK  185  A    between atoms: _427  and  _428
REMARK  186  A    between atoms: _431  and  _433
REMARK  187  A    between atoms: _433  and  _434
REMARK  188  A    between atoms: _437  and  _439
REMARK  189  A    between atoms: _439  and  _440
REMARK  190  A    between atoms: _439  and  _442
REMARK  191  A    between atoms: _445  and  _447
REMARK  192  A    between atoms: _447  and  _448
REMARK  193  A    between atoms: _447  and  _450
REMARK  194  A    between atoms: _450  and  _451
REMARK  195  A    between atoms: _453  and  _455
REMARK  196  A    between atoms: _455  and  _456
REMARK  197  A    between atoms: _458  and  _460
REMARK  198  A    between atoms: _460  and  _461
REMARK  199  A    between atoms: _460  and  _463
REMARK  200  A    between atoms: _463  and  _464
REMARK  201  A    between atoms: _469  and  _471
REMARK  202  A    between atoms: _471  and  _472
REMARK  203  A    between atoms: _471  and  _474
REMARK  204  A    between atoms: _474  and  _475
REMARK  205  A    between atoms: _480  and  _481
REMARK  206  A    between atoms: _483  and  _485
REMARK  207  A    between atoms: _485  and  _486
REMARK  208  A    between atoms: _485  and  _488
REMARK  209  A    between atoms: _490  and  _492
REMARK  210  A    between atoms: _492  and  _493
REMARK  211  A    between atoms: _492  and  _495
REMARK  212  A    between atoms: _495  and  _496
REMARK  213  A    between atoms: _499  and  _501
REMARK  214  A    between atoms: _501  and  _502
REMARK  215  A    between atoms: _501  and  _504
REMARK  216  A    between atoms: _504  and  _505
REMARK  217  A    between atoms: _508  and  _510
REMARK  218  A    between atoms: _510  and  _511
REMARK  219  A    between atoms: _510  and  _513
REMARK  220  A    between atoms: _513  and  _514
REMARK  221  A    between atoms: _514  and  _515
REMARK  222  A    between atoms: _515  and  _516
REMARK  223  A    between atoms: _516  and  _517
REMARK  224  A    between atoms: _521  and  _523
REMARK  225  A    between atoms: _523  and  _524
REMARK  226  A    between atoms: _523  and  _526
REMARK  227  A    between atoms: _526  and  _527
REMARK  228  A    between atoms: _527  and  _528
REMARK  229  A    between atoms: _528  and  _529
REMARK  230  A    between atoms: _529  and  _530
REMARK  231  A    between atoms: _534  and  _536
REMARK  232  A    between atoms: _536  and  _537
REMARK  233  A    between atoms: _536  and  _539
REMARK  234  A    between atoms: _539  and  _540
REMARK  235  A    between atoms: _540  and  _541
REMARK  236  A    between atoms: _541  and  _542
REMARK  237  A    between atoms: _551  and  _553
REMARK  238  A    between atoms: _553  and  _554
REMARK  239  A    between atoms: _553  and  _556
REMARK  240  A    between atoms: _556  and  _557
REMARK  241  A    between atoms: _560  and  _562
REMARK  242  A    between atoms: _562  and  _563
REMARK  243  A    between atoms: _566  and  _568
REMARK  244  A    between atoms: _568  and  _569
REMARK  245  A    between atoms: _568  and  _571
REMARK  246  A    between atoms: _571  and  _572
REMARK  247  A    between atoms: _572  and  _573
REMARK                            x       y       z     vdW  Elec       q    Type
REMARK                         _______ _______ _______ _____ _____    ______ ____
ROOT
ATOM      1  O   HOH     1     -11.654  -1.024  39.709  0.00  0.00    +0.000 OA
ENDROOT
TORSDOF 0
REMARK  Name = ../refined-set-2016/3cd0/3cd0_pocket.pdb
REMARK  247 active torsions:
REMARK  status: ('A' for Active; 'I' for Inactive)
REMARK    1  A    between atoms: _1  and  _3
REMARK    2  A    between atoms: _3  and  _4
REMARK    3  A    between atoms: _3  and  _6
REMARK    4  A    between atoms: _6  and  _7
REMARK    5  A    between atoms: _10  and  _12
REMARK    6  A    between atoms: _12  and  _13
REMARK    7  A    between atoms: _12  and  _15
REMARK    8  A    between atoms: _15  and  _16
REMARK    9  A    between atoms: _16  and  _17
REMARK   10  A    between atoms: _20  and  _22
REMARK   11  A    between atoms: _22  and  _23
REMARK   12  A    between atoms: _25  and  _27
REMARK   13  A    between atoms: _27  and  _28
REMARK   14  A    between atoms: _27  and  _30
REMARK   15  A    between atoms: _32  and  _34
REMARK   16  A    between atoms: _34  and  _35
REMARK   17  A    between atoms: _34  and  _37
REMARK   18  A    between atoms: _37  and  _38
REMARK   19  A    between atoms: _41  and  _43
REMARK   20  A    between atoms: _43  and  _44
REMARK   21  A    between atoms: _43  and  _46
REMARK   22  A    between atoms: _49  and  _51
REMARK   23  A    between atoms: _51  and  _52
REMARK   24  A    between atoms: _55  and  _57
REMARK   25  A    between atoms: _57  and  _58
REMARK   26  A    between atoms: _57  and  _60
REMARK   27  A    between atoms: _60  and  _61
REMARK   28  A    between atoms: _63  and  _65
REMARK   29  A    between atoms: _65  and  _66
REMARK   30  A    between atoms: _65  and  _68
REMARK   31  A    between atoms: _68  and  _69
REMARK   32  A    between atoms: _72  and  _74
REMARK   33  A    between atoms: _74  and  _75
REMARK   34  A    between atoms: _74  and  _77
REMARK   35  A    between atoms: _77  and  _78
REMARK   36  A    between atoms: _83  and  _85
REMARK   37  A    between atoms: _85  and  _86
REMARK   38  A    between atoms: _85  and  _88
REMARK   39  A    between atoms: _88  and  _89
REMARK   40  A    between atoms: _89  and  _90
REMARK   41  A    between atoms: _90  and  _91
REMARK   42  A    between atoms: _100  and  _102
REMARK   43  A    between atoms: _102  and  _103
REMARK   44  A    between atoms: _105  and  _107
REMARK   45  A    between atoms: _107  and  _108
REMARK   46  A    between atoms: _107  and  _110
REMARK   47  A    between atoms: _113  and  _115
REMARK   48  A    between atoms: _115  and  _116
REMARK   49  A    between atoms: _115  and  _118
REMARK   50  A    between atoms: _118  and  _119
REMARK   51  A    between atoms: _122  and  _124
REMARK   52  A    between atoms: _124  and  _125
REMARK   53  A    between atoms: _124  and  _127
REMARK   54  A    between atoms: _127  and  _128
REMARK   55  A    between atoms: _128  and  _129
REMARK   56  A    between atoms: _129  and  _130
REMARK   57  A    between atoms: _130  and  _131
REMARK   58  A    between atoms: _135  and  _137
REMARK   59  A    between atoms: _137  and  _138
REMARK   60  A    between atoms: _137  and  _140
REMARK   61  A    between atoms: _140  and  _141
REMARK   62  A    between atoms: _141  and  _142
REMARK   63  A    between atoms: _142  and  _143
REMARK   64  A    between atoms: _143  and  _144
REMARK   65  A    between atoms: _148  and  _150
REMARK   66  A    between atoms: _150  and  _151
REMARK   67  A    between atoms: _150  and  _153
REMARK   68  A    between atoms: _153  and  _154
REMARK   69  A    between atoms: _159  and  _161
REMARK   70  A    between atoms: _161  and  _162
REMARK   71  A    between atoms: _161  and  _164
REMARK   72  A    between atoms: _164  and  _165
REMARK   73  A    between atoms: _170  and  _172
REMARK   74  A    between atoms: _172  and  _173
REMARK   75  A    between atoms: _176  and  _178
REMARK   76  A    between atoms: _178  and  _179
REMARK   77  A    between atoms: _178  and  _181
REMARK   78  A    between atoms: _181  and  _182
REMARK   79  A    between atoms: _187  and  _189
REMARK   80  A    between atoms: _189  and  _190
REMARK   81  A    between atoms: _193  and  _195
REMARK   82  A    between atoms: _195  and  _196
REMARK   83  A    between atoms: _199  and  _201
REMARK   84  A    between atoms: _201  and  _202
REMARK   85  A    between atoms: _201  and  _204
REMARK   86  A    between atoms: _204  and  _205
REMARK   87  A    between atoms: _210  and  _212
REMARK   88  A    between atoms: _212  and  _213
REMARK   89  A    between atoms: _212  and  _215
REMARK   90  A    between atoms: _215  and  _216
REMARK   91  A    between atoms: _219  and  _221
REMARK   92  A    between atoms: _221  and  _222
REMARK   93  A    between atoms: _224  and  _226
REMARK   94  A    between atoms: _226  and  _227
REMARK   95  A    between atoms: _226  and  _229
REMARK   96  A    between atoms: _229  and  _230
REMARK   97  A    between atoms: _230  and  _231
REMARK   98  A    between atoms: _234  and  _236
REMARK   99  A    between atoms: _236  and  _237
REMARK  100  A    between atoms: _236  and  _239
REMARK  101  A    between atoms: _239  and  _240
REMARK  102  A    between atoms: _243  and  _245
REMARK  103  A    between atoms: _245  and  _246
REMARK  104  A    between atoms: _245  and  _248
REMARK  105  A    between atoms: _248  and  _249
REMARK  106  A    between atoms: _251  and  _253
REMARK  107  A    between atoms: _253  and  _254
REMARK  108  A    between atoms: _253  and  _256
REMARK  109  A    between atoms: _256  and  _257
REMARK  110  A    between atoms: _260  and  _262
REMARK  111  A    between atoms: _262  and  _263
REMARK  112  A    between atoms: _262  and  _265
REMARK  113  A    between atoms: _265  and  _266
REMARK  114  A    between atoms: _266  and  _267
REMARK  115  A    between atoms: _269  and  _271
REMARK  116  A    between atoms: _271  and  _272
REMARK  117  A    between atoms: _275  and  _277
REMARK  118  A    between atoms: _277  and  _278
REMARK  119  A    between atoms: _281  and  _283
REMARK  120  A    between atoms: _283  and  _284
REMARK  121  A    between atoms: _283  and  _286
REMARK  122  A    between atoms: _286  and  _287
REMARK  123  A    between atoms: _290  and  _292
REMARK  124  A    between atoms: _292  and  _293
REMARK  125  A    between atoms: _292  and  _295
REMARK  126  A    between atoms: _295  and  _296
REMARK  127  A    between atoms: _301  and  _303
REMARK  128  A    between atoms: _303  and  _304
REMARK  129  A    between atoms: _303  and  _306
REMARK  130  A    between atoms: _306  and  _307
REMARK  131  A    between atoms: _307  and  _308
REMARK  132  A    between atoms: _311  and  _313
REMARK  133  A    between atoms: _313  and  _314
REMARK  134  A    between atoms: _313  and  _316
REMARK  135  A    between atoms: _316  and  _317
REMARK  136  A    between atoms: _322  and  _324
REMARK  137  A    between atoms: _324  and  _325
REMARK  138  A    between atoms: _324  and  _327
REMARK  139  A    between atoms: _327  and  _328
REMARK  140  A    between atoms: _331  and  _333
REMARK  141  A    between atoms: _333  and  _334
REMARK  142  A    between atoms: _333  and  _336
REMARK  143  A    between atoms: _336  and  _337
REMARK  144  A    between atoms: _337  and  _338
REMARK  145  A    between atoms: _338  and  _339
REMARK  146  A    between atoms: _348  and  _350
REMARK  147  A    between atoms: _350  and  _351
REMARK  148  A    between atoms: _353  and  _355
REMARK  149  A    between atoms: _355  and  _356
REMARK  150  A    between atoms: _355  and  _358
REMARK  151  A    between atoms: _358  and  _359
REMARK  152  A    between atoms: _359  and  _360
REMARK  153  A    between atoms: _362  and  _364
REMARK  154  A    between atoms: _364  and  _365
REMARK  155  A    between atoms: _364  and  _367
REMARK  156  A    between atoms: _367  and  _368
REMARK  157  A    between atoms: _368  and  _369
REMARK  158  A    between atoms: _371  and  _373
REMARK  159  A    between atoms: _373  and  _374
REMARK  160  A    between atoms: _373  and  _376
REMARK  161  A    between atoms: _376  and  _377
REMARK  162  A    between atoms: _382  and  _384
REMARK  163  A    between atoms: _384  and  _385
REMARK  164  A    between atoms: _384  and  _387
REMARK  165  A    between atoms: _387  and  _388
REMARK  166  A    between atoms: _391  and  _393
REMARK  167  A    between atoms: _393  and  _394
REMARK  168  A    between atoms: _393  and  _396
REMARK  169  A    between atoms: _396  and  _397
REMARK  170  A    between atoms: _399  and  _401
REMARK  171  A    between atoms: _401  and  _402
REMARK  172  A    between atoms: _401  and  _404
REMARK  173  A    between atoms: _404  and  _405
REMARK  174  A    between atoms: _405  and  _406
REMARK  175  A    between atoms: _406  and  _407
REMARK  176  A    between atoms: _407  and  _408
REMARK  177  A    between atoms: _412  and  _414
REMARK  178  A    between atoms: _414  and  _415
REMARK  179  A    between atoms: _414  and  _417
REMARK  180  A    between atoms: _417  and  _418
REMARK  181  A    between atoms: _421  and  _423
REMARK  182  A    between atoms: _423  and  _424
REMARK  183  A    between atoms: _423  and  _426
REMARK  184  A    between atoms: _426  and  _427
REMARK  185  A    between atoms: _427  and  _428
REMARK  186  A    between atoms: _431  and  _433
REMARK  187  A    between atoms: _433  and  _434
REMARK  188  A    between atoms: _437  and  _439
REMARK  189  A    between atoms: _439  and  _440
REMARK  190  A    between atoms: _439  and  _442
REMARK  191  A    between atoms: _445  and  _447
REMARK  192  A    between atoms: _447  and  _448
REMARK  193  A    between atoms: _447  and  _450
REMARK  194  A    between atoms: _450  and  _451
REMARK  195  A    between atoms: _453  and  _455
REMARK  196  A    between atoms: _455  and  _456
REMARK  197  A    between atoms: _458  and  _460
REMARK  198  A    between atoms: _460  and  _461
REMARK  199  A    between atoms: _460  and  _463
REMARK  200  A    between atoms: _463  and  _464
REMARK  201  A    between atoms: _469  and  _471
REMARK  202  A    between atoms: _471  and  _472
REMARK  203  A    between atoms: _471  and  _474
REMARK  204  A    between atoms: _474  and  _475
REMARK  205  A    between atoms: _480  and  _481
REMARK  206  A    between atoms: _483  and  _485
REMARK  207  A    between atoms: _485  and  _486
REMARK  208  A    between atoms: _485  and  _488
REMARK  209  A    between atoms: _490  and  _492
REMARK  210  A    between atoms: _492  and  _493
REMARK  211  A    between atoms: _492  and  _495
REMARK  212  A    between atoms: _495  and  _496
REMARK  213  A    between atoms: _499  and  _501
REMARK  214  A    between atoms: _501  and  _502
REMARK  215  A    between atoms: _501  and  _504
REMARK  216  A    between atoms: _504  and  _505
REMARK  217  A    between atoms: _508  and  _510
REMARK  218  A    between atoms: _510  and  _511
REMARK  219  A    between atoms: _510  and  _513
REMARK  220  A    between atoms: _513  and  _514
REMARK  221  A    between atoms: _514  and  _515
REMARK  222  A    between atoms: _515  and  _516
REMARK  223  A    between atoms: _516  and  _517
REMARK  224  A    between atoms: _521  and  _523
REMARK  225  A    between atoms: _523  and  _524
REMARK  226  A    between atoms: _523  and  _526
REMARK  227  A    between atoms: _526  and  _527
REMARK  228  A    between atoms: _527  and  _528
REMARK  229  A    between atoms: _528  and  _529
REMARK  230  A    between atoms: _529  and  _530
REMARK  231  A    between atoms: _534  and  _536
REMARK  232  A    between atoms: _536  and  _537
REMARK  233  A    between atoms: _536  and  _539
REMARK  234  A    between atoms: _539  and  _540
REMARK  235  A    between atoms: _540  and  _541
REMARK  236  A    between atoms: _541  and  _542
REMARK  237  A    between atoms: _551  and  _553
REMARK  238  A    between atoms: _553  and  _554
REMARK  239  A    between atoms: _553  and  _556
REMARK  240  A    between atoms: _556  and  _557
REMARK  241  A    between atoms: _560  and  _562
REMARK  242  A    between atoms: _562  and  _563
REMARK  243  A    between atoms: _566  and  _568
REMARK  244  A    between atoms: _568  and  _569
REMARK  245  A    between atoms: _568  and  _571
REMARK  246  A    between atoms: _571  and  _572
REMARK  247  A    between atoms: _572  and  _573
REMARK                            x       y       z     vdW  Elec       q    Type
REMARK                         _______ _______ _______ _____ _____    ______ ____
ROOT
ATOM      1  O   HOH     1     -17.977  16.922  46.228  0.00  0.00    +0.000 OA
ENDROOT
TORSDOF 0
REMARK  Name = ../refined-set-2016/3cd0/3cd0_pocket.pdb
REMARK  247 active torsions:
REMARK  status: ('A' for Active; 'I' for Inactive)
REMARK    1  A    between atoms: _1  and  _3
REMARK    2  A    between atoms: _3  and  _4
REMARK    3  A    between atoms: _3  and  _6
REMARK    4  A    between atoms: _6  and  _7
REMARK    5  A    between atoms: _10  and  _12
REMARK    6  A    between atoms: _12  and  _13
REMARK    7  A    between atoms: _12  and  _15
REMARK    8  A    between atoms: _15  and  _16
REMARK    9  A    between atoms: _16  and  _17
REMARK   10  A    between atoms: _20  and  _22
REMARK   11  A    between atoms: _22  and  _23
REMARK   12  A    between atoms: _25  and  _27
REMARK   13  A    between atoms: _27  and  _28
REMARK   14  A    between atoms: _27  and  _30
REMARK   15  A    between atoms: _32  and  _34
REMARK   16  A    between atoms: _34  and  _35
REMARK   17  A    between atoms: _34  and  _37
REMARK   18  A    between atoms: _37  and  _38
REMARK   19  A    between atoms: _41  and  _43
REMARK   20  A    between atoms: _43  and  _44
REMARK   21  A    between atoms: _43  and  _46
REMARK   22  A    between atoms: _49  and  _51
REMARK   23  A    between atoms: _51  and  _52
REMARK   24  A    between atoms: _55  and  _57
REMARK   25  A    between atoms: _57  and  _58
REMARK   26  A    between atoms: _57  and  _60
REMARK   27  A    between atoms: _60  and  _61
REMARK   28  A    between atoms: _63  and  _65
REMARK   29  A    between atoms: _65  and  _66
REMARK   30  A    between atoms: _65  and  _68
REMARK   31  A    between atoms: _68  and  _69
REMARK   32  A    between atoms: _72  and  _74
REMARK   33  A    between atoms: _74  and  _75
REMARK   34  A    between atoms: _74  and  _77
REMARK   35  A    between atoms: _77  and  _78
REMARK   36  A    between atoms: _83  and  _85
REMARK   37  A    between atoms: _85  and  _86
REMARK   38  A    between atoms: _85  and  _88
REMARK   39  A    between atoms: _88  and  _89
REMARK   40  A    between atoms: _89  and  _90
REMARK   41  A    between atoms: _90  and  _91
REMARK   42  A    between atoms: _100  and  _102
REMARK   43  A    between atoms: _102  and  _103
REMARK   44  A    between atoms: _105  and  _107
REMARK   45  A    between atoms: _107  and  _108
REMARK   46  A    between atoms: _107  and  _110
REMARK   47  A    between atoms: _113  and  _115
REMARK   48  A    between atoms: _115  and  _116
REMARK   49  A    between atoms: _115  and  _118
REMARK   50  A    between atoms: _118  and  _119
REMARK   51  A    between atoms: _122  and  _124
REMARK   52  A    between atoms: _124  and  _125
REMARK   53  A    between atoms: _124  and  _127
REMARK   54  A    between atoms: _127  and  _128
REMARK   55  A    between atoms: _128  and  _129
REMARK   56  A    between atoms: _129  and  _130
REMARK   57  A    between atoms: _130  and  _131
REMARK   58  A    between atoms: _135  and  _137
REMARK   59  A    between atoms: _137  and  _138
REMARK   60  A    between atoms: _137  and  _140
REMARK   61  A    between atoms: _140  and  _141
REMARK   62  A    between atoms: _141  and  _142
REMARK   63  A    between atoms: _142  and  _143
REMARK   64  A    between atoms: _143  and  _144
REMARK   65  A    between atoms: _148  and  _150
REMARK   66  A    between atoms: _150  and  _151
REMARK   67  A    between atoms: _150  and  _153
REMARK   68  A    between atoms: _153  and  _154
REMARK   69  A    between atoms: _159  and  _161
REMARK   70  A    between atoms: _161  and  _162
REMARK   71  A    between atoms: _161  and  _164
REMARK   72  A    between atoms: _164  and  _165
REMARK   73  A    between atoms: _170  and  _172
REMARK   74  A    between atoms: _172  and  _173
REMARK   75  A    between atoms: _176  and  _178
REMARK   76  A    between atoms: _178  and  _179
REMARK   77  A    between atoms: _178  and  _181
REMARK   78  A    between atoms: _181  and  _182
REMARK   79  A    between atoms: _187  and  _189
REMARK   80  A    between atoms: _189  and  _190
REMARK   81  A    between atoms: _193  and  _195
REMARK   82  A    between atoms: _195  and  _196
REMARK   83  A    between atoms: _199  and  _201
REMARK   84  A    between atoms: _201  and  _202
REMARK   85  A    between atoms: _201  and  _204
REMARK   86  A    between atoms: _204  and  _205
REMARK   87  A    between atoms: _210  and  _212
REMARK   88  A    between atoms: _212  and  _213
REMARK   89  A    between atoms: _212  and  _215
REMARK   90  A    between atoms: _215  and  _216
REMARK   91  A    between atoms: _219  and  _221
REMARK   92  A    between atoms: _221  and  _222
REMARK   93  A    between atoms: _224  and  _226
REMARK   94  A    between atoms: _226  and  _227
REMARK   95  A    between atoms: _226  and  _229
REMARK   96  A    between atoms: _229  and  _230
REMARK   97  A    between atoms: _230  and  _231
REMARK   98  A    between atoms: _234  and  _236
REMARK   99  A    between atoms: _236  and  _237
REMARK  100  A    between atoms: _236  and  _239
REMARK  101  A    between atoms: _239  and  _240
REMARK  102  A    between atoms: _243  and  _245
REMARK  103  A    between atoms: _245  and  _246
REMARK  104  A    between atoms: _245  and  _248
REMARK  105  A    between atoms: _248  and  _249
REMARK  106  A    between atoms: _251  and  _253
REMARK  107  A    between atoms: _253  and  _254
REMARK  108  A    between atoms: _253  and  _256
REMARK  109  A    between atoms: _256  and  _257
REMARK  110  A    between atoms: _260  and  _262
REMARK  111  A    between atoms: _262  and  _263
REMARK  112  A    between atoms: _262  and  _265
REMARK  113  A    between atoms: _265  and  _266
REMARK  114  A    between atoms: _266  and  _267
REMARK  115  A    between atoms: _269  and  _271
REMARK  116  A    between atoms: _271  and  _272
REMARK  117  A    between atoms: _275  and  _277
REMARK  118  A    between atoms: _277  and  _278
REMARK  119  A    between atoms: _281  and  _283
REMARK  120  A    between atoms: _283  and  _284
REMARK  121  A    between atoms: _283  and  _286
REMARK  122  A    between atoms: _286  and  _287
REMARK  123  A    between atoms: _290  and  _292
REMARK  124  A    between atoms: _292  and  _293
REMARK  125  A    between atoms: _292  and  _295
REMARK  126  A    between atoms: _295  and  _296
REMARK  127  A    between atoms: _301  and  _303
REMARK  128  A    between atoms: _303  and  _304
REMARK  129  A    between atoms: _303  and  _306
REMARK  130  A    between atoms: _306  and  _307
REMARK  131  A    between atoms: _307  and  _308
REMARK  132  A    between atoms: _311  and  _313
REMARK  133  A    between atoms: _313  and  _314
REMARK  134  A    between atoms: _313  and  _316
REMARK  135  A    between atoms: _316  and  _317
REMARK  136  A    between atoms: _322  and  _324
REMARK  137  A    between atoms: _324  and  _325
REMARK  138  A    between atoms: _324  and  _327
REMARK  139  A    between atoms: _327  and  _328
REMARK  140  A    between atoms: _331  and  _333
REMARK  141  A    between atoms: _333  and  _334
REMARK  142  A    between atoms: _333  and  _336
REMARK  143  A    between atoms: _336  and  _337
REMARK  144  A    between atoms: _337  and  _338
REMARK  145  A    between atoms: _338  and  _339
REMARK  146  A    between atoms: _348  and  _350
REMARK  147  A    between atoms: _350  and  _351
REMARK  148  A    between atoms: _353  and  _355
REMARK  149  A    between atoms: _355  and  _356
REMARK  150  A    between atoms: _355  and  _358
REMARK  151  A    between atoms: _358  and  _359
REMARK  152  A    between atoms: _359  and  _360
REMARK  153  A    between atoms: _362  and  _364
REMARK  154  A    between atoms: _364  and  _365
REMARK  155  A    between atoms: _364  and  _367
REMARK  156  A    between atoms: _367  and  _368
REMARK  157  A    between atoms: _368  and  _369
REMARK  158  A    between atoms: _371  and  _373
REMARK  159  A    between atoms: _373  and  _374
REMARK  160  A    between atoms: _373  and  _376
REMARK  161  A    between atoms: _376  and  _377
REMARK  162  A    between atoms: _382  and  _384
REMARK  163  A    between atoms: _384  and  _385
REMARK  164  A    between atoms: _384  and  _387
REMARK  165  A    between atoms: _387  and  _388
REMARK  166  A    between atoms: _391  and  _393
REMARK  167  A    between atoms: _393  and  _394
REMARK  168  A    between atoms: _393  and  _396
REMARK  169  A    between atoms: _396  and  _397
REMARK  170  A    between atoms: _399  and  _401
REMARK  171  A    between atoms: _401  and  _402
REMARK  172  A    between atoms: _401  and  _404
REMARK  173  A    between atoms: _404  and  _405
REMARK  174  A    between atoms: _405  and  _406
REMARK  175  A    between atoms: _406  and  _407
REMARK  176  A    between atoms: _407  and  _408
REMARK  177  A    between atoms: _412  and  _414
REMARK  178  A    between atoms: _414  and  _415
REMARK  179  A    between atoms: _414  and  _417
REMARK  180  A    between atoms: _417  and  _418
REMARK  181  A    between atoms: _421  and  _423
REMARK  182  A    between atoms: _423  and  _424
REMARK  183  A    between atoms: _423  and  _426
REMARK  184  A    between atoms: _426  and  _427
REMARK  185  A    between atoms: _427  and  _428
REMARK  186  A    between atoms: _431  and  _433
REMARK  187  A    between atoms: _433  and  _434
REMARK  188  A    between atoms: _437  and  _439
REMARK  189  A    between atoms: _439  and  _440
REMARK  190  A    between atoms: _439  and  _442
REMARK  191  A    between atoms: _445  and  _447
REMARK  192  A    between atoms: _447  and  _448
REMARK  193  A    between atoms: _447  and  _450
REMARK  194  A    between atoms: _450  and  _451
REMARK  195  A    between atoms: _453  and  _455
REMARK  196  A    between atoms: _455  and  _456
REMARK  197  A    between atoms: _458  and  _460
REMARK  198  A    between atoms: _460  and  _461
REMARK  199  A    between atoms: _460  and  _463
REMARK  200  A    between atoms: _463  and  _464
REMARK  201  A    between atoms: _469  and  _471
REMARK  202  A    between atoms: _471  and  _472
REMARK  203  A    between atoms: _471  and  _474
REMARK  204  A    between atoms: _474  and  _475
REMARK  205  A    between atoms: _480  and  _481
REMARK  206  A    between atoms: _483  and  _485
REMARK  207  A    between atoms: _485  and  _486
REMARK  208  A    between atoms: _485  and  _488
REMARK  209  A    between atoms: _490  and  _492
REMARK  210  A    between atoms: _492  and  _493
REMARK  211  A    between atoms: _492  and  _495
REMARK  212  A    between atoms: _495  and  _496
REMARK  213  A    between atoms: _499  and  _501
REMARK  214  A    between atoms: _501  and  _502
REMARK  215  A    between atoms: _501  and  _504
REMARK  216  A    between atoms: _504  and  _505
REMARK  217  A    between atoms: _508  and  _510
REMARK  218  A    between atoms: _510  and  _511
REMARK  219  A    between atoms: _510  and  _513
REMARK  220  A    between atoms: _513  and  _514
REMARK  221  A    between atoms: _514  and  _515
REMARK  222  A    between atoms: _515  and  _516
REMARK  223  A    between atoms: _516  and  _517
REMARK  224  A    between atoms: _521  and  _523
REMARK  225  A    between atoms: _523  and  _524
REMARK  226  A    between atoms: _523  and  _526
REMARK  227  A    between atoms: _526  and  _527
REMARK  228  A    between atoms: _527  and  _528
REMARK  229  A    between atoms: _528  and  _529
REMARK  230  A    between atoms: _529  and  _530
REMARK  231  A    between atoms: _534  and  _536
REMARK  232  A    between atoms: _536  and  _537
REMARK  233  A    between atoms: _536  and  _539
REMARK  234  A    between atoms: _539  and  _540
REMARK  235  A    between atoms: _540  and  _541
REMARK  236  A    between atoms: _541  and  _542
REMARK  237  A    between atoms: _551  and  _553
REMARK  238  A    between atoms: _553  and  _554
REMARK  239  A    between atoms: _553  and  _556
REMARK  240  A    between atoms: _556  and  _557
REMARK  241  A    between atoms: _560  and  _562
REMARK  242  A    between atoms: _562  and  _563
REMARK  243  A    between atoms: _566  and  _568
REMARK  244  A    between atoms: _568  and  _569
REMARK  245  A    between atoms: _568  and  _571
REMARK  246  A    between atoms: _571  and  _572
REMARK  247  A    between atoms: _572  and  _573
REMARK                            x       y       z     vdW  Elec       q    Type
REMARK                         _______ _______ _______ _____ _____    ______ ____
ROOT
ATOM      1  O   HOH     1     -14.278  -2.054  47.147  0.00  0.00    +0.000 OA
ENDROOT
TORSDOF 0
REMARK  Name = ../refined-set-2016/3cd0/3cd0_pocket.pdb
REMARK  247 active torsions:
REMARK  status: ('A' for Active; 'I' for Inactive)
REMARK    1  A    between atoms: _1  and  _3
REMARK    2  A    between atoms: _3  and  _4
REMARK    3  A    between atoms: _3  and  _6
REMARK    4  A    between atoms: _6  and  _7
REMARK    5  A    between atoms: _10  and  _12
REMARK    6  A    between atoms: _12  and  _13
REMARK    7  A    between atoms: _12  and  _15
REMARK    8  A    between atoms: _15  and  _16
REMARK    9  A    between atoms: _16  and  _17
REMARK   10  A    between atoms: _20  and  _22
REMARK   11  A    between atoms: _22  and  _23
REMARK   12  A    between atoms: _25  and  _27
REMARK   13  A    between atoms: _27  and  _28
REMARK   14  A    between atoms: _27  and  _30
REMARK   15  A    between atoms: _32  and  _34
REMARK   16  A    between atoms: _34  and  _35
REMARK   17  A    between atoms: _34  and  _37
REMARK   18  A    between atoms: _37  and  _38
REMARK   19  A    between atoms: _41  and  _43
REMARK   20  A    between atoms: _43  and  _44
REMARK   21  A    between atoms: _43  and  _46
REMARK   22  A    between atoms: _49  and  _51
REMARK   23  A    between atoms: _51  and  _52
REMARK   24  A    between atoms: _55  and  _57
REMARK   25  A    between atoms: _57  and  _58
REMARK   26  A    between atoms: _57  and  _60
REMARK   27  A    between atoms: _60  and  _61
REMARK   28  A    between atoms: _63  and  _65
REMARK   29  A    between atoms: _65  and  _66
REMARK   30  A    between atoms: _65  and  _68
REMARK   31  A    between atoms: _68  and  _69
REMARK   32  A    between atoms: _72  and  _74
REMARK   33  A    between atoms: _74  and  _75
REMARK   34  A    between atoms: _74  and  _77
REMARK   35  A    between atoms: _77  and  _78
REMARK   36  A    between atoms: _83  and  _85
REMARK   37  A    between atoms: _85  and  _86
REMARK   38  A    between atoms: _85  and  _88
REMARK   39  A    between atoms: _88  and  _89
REMARK   40  A    between atoms: _89  and  _90
REMARK   41  A    between atoms: _90  and  _91
REMARK   42  A    between atoms: _100  and  _102
REMARK   43  A    between atoms: _102  and  _103
REMARK   44  A    between atoms: _105  and  _107
REMARK   45  A    between atoms: _107  and  _108
REMARK   46  A    between atoms: _107  and  _110
REMARK   47  A    between atoms: _113  and  _115
REMARK   48  A    between atoms: _115  and  _116
REMARK   49  A    between atoms: _115  and  _118
REMARK   50  A    between atoms: _118  and  _119
REMARK   51  A    between atoms: _122  and  _124
REMARK   52  A    between atoms: _124  and  _125
REMARK   53  A    between atoms: _124  and  _127
REMARK   54  A    between atoms: _127  and  _128
REMARK   55  A    between atoms: _128  and  _129
REMARK   56  A    between atoms: _129  and  _130
REMARK   57  A    between atoms: _130  and  _131
REMARK   58  A    between atoms: _135  and  _137
REMARK   59  A    between atoms: _137  and  _138
REMARK   60  A    between atoms: _137  and  _140
REMARK   61  A    between atoms: _140  and  _141
REMARK   62  A    between atoms: _141  and  _142
REMARK   63  A    between atoms: _142  and  _143
REMARK   64  A    between atoms: _143  and  _144
REMARK   65  A    between atoms: _148  and  _150
REMARK   66  A    between atoms: _150  and  _151
REMARK   67  A    between atoms: _150  and  _153
REMARK   68  A    between atoms: _153  and  _154
REMARK   69  A    between atoms: _159  and  _161
REMARK   70  A    between atoms: _161  and  _162
REMARK   71  A    between atoms: _161  and  _164
REMARK   72  A    between atoms: _164  and  _165
REMARK   73  A    between atoms: _170  and  _172
REMARK   74  A    between atoms: _172  and  _173
REMARK   75  A    between atoms: _176  and  _178
REMARK   76  A    between atoms: _178  and  _179
REMARK   77  A    between atoms: _178  and  _181
REMARK   78  A    between atoms: _181  and  _182
REMARK   79  A    between atoms: _187  and  _189
REMARK   80  A    between atoms: _189  and  _190
REMARK   81  A    between atoms: _193  and  _195
REMARK   82  A    between atoms: _195  and  _196
REMARK   83  A    between atoms: _199  and  _201
REMARK   84  A    between atoms: _201  and  _202
REMARK   85  A    between atoms: _201  and  _204
REMARK   86  A    between atoms: _204  and  _205
REMARK   87  A    between atoms: _210  and  _212
REMARK   88  A    between atoms: _212  and  _213
REMARK   89  A    between atoms: _212  and  _215
REMARK   90  A    between atoms: _215  and  _216
REMARK   91  A    between atoms: _219  and  _221
REMARK   92  A    between atoms: _221  and  _222
REMARK   93  A    between atoms: _224  and  _226
REMARK   94  A    between atoms: _226  and  _227
REMARK   95  A    between atoms: _226  and  _229
REMARK   96  A    between atoms: _229  and  _230
REMARK   97  A    between atoms: _230  and  _231
REMARK   98  A    between atoms: _234  and  _236
REMARK   99  A    between atoms: _236  and  _237
REMARK  100  A    between atoms: _236  and  _239
REMARK  101  A    between atoms: _239  and  _240
REMARK  102  A    between atoms: _243  and  _245
REMARK  103  A    between atoms: _245  and  _246
REMARK  104  A    between atoms: _245  and  _248
REMARK  105  A    between atoms: _248  and  _249
REMARK  106  A    between atoms: _251  and  _253
REMARK  107  A    between atoms: _253  and  _254
REMARK  108  A    between atoms: _253  and  _256
REMARK  109  A    between atoms: _256  and  _257
REMARK  110  A    between atoms: _260  and  _262
REMARK  111  A    between atoms: _262  and  _263
REMARK  112  A    between atoms: _262  and  _265
REMARK  113  A    between atoms: _265  and  _266
REMARK  114  A    between atoms: _266  and  _267
REMARK  115  A    between atoms: _269  and  _271
REMARK  116  A    between atoms: _271  and  _272
REMARK  117  A    between atoms: _275  and  _277
REMARK  118  A    between atoms: _277  and  _278
REMARK  119  A    between atoms: _281  and  _283
REMARK  120  A    between atoms: _283  and  _284
REMARK  121  A    between atoms: _283  and  _286
REMARK  122  A    between atoms: _286  and  _287
REMARK  123  A    between atoms: _290  and  _292
REMARK  124  A    between atoms: _292  and  _293
REMARK  125  A    between atoms: _292  and  _295
REMARK  126  A    between atoms: _295  and  _296
REMARK  127  A    between atoms: _301  and  _303
REMARK  128  A    between atoms: _303  and  _304
REMARK  129  A    between atoms: _303  and  _306
REMARK  130  A    between atoms: _306  and  _307
REMARK  131  A    between atoms: _307  and  _308
REMARK  132  A    between atoms: _311  and  _313
REMARK  133  A    between atoms: _313  and  _314
REMARK  134  A    between atoms: _313  and  _316
REMARK  135  A    between atoms: _316  and  _317
REMARK  136  A    between atoms: _322  and  _324
REMARK  137  A    between atoms: _324  and  _325
REMARK  138  A    between atoms: _324  and  _327
REMARK  139  A    between atoms: _327  and  _328
REMARK  140  A    between atoms: _331  and  _333
REMARK  141  A    between atoms: _333  and  _334
REMARK  142  A    between atoms: _333  and  _336
REMARK  143  A    between atoms: _336  and  _337
REMARK  144  A    between atoms: _337  and  _338
REMARK  145  A    between atoms: _338  and  _339
REMARK  146  A    between atoms: _348  and  _350
REMARK  147  A    between atoms: _350  and  _351
REMARK  148  A    between atoms: _353  and  _355
REMARK  149  A    between atoms: _355  and  _356
REMARK  150  A    between atoms: _355  and  _358
REMARK  151  A    between atoms: _358  and  _359
REMARK  152  A    between atoms: _359  and  _360
REMARK  153  A    between atoms: _362  and  _364
REMARK  154  A    between atoms: _364  and  _365
REMARK  155  A    between atoms: _364  and  _367
REMARK  156  A    between atoms: _367  and  _368
REMARK  157  A    between atoms: _368  and  _369
REMARK  158  A    between atoms: _371  and  _373
REMARK  159  A    between atoms: _373  and  _374
REMARK  160  A    between atoms: _373  and  _376
REMARK  161  A    between atoms: _376  and  _377
REMARK  162  A    between atoms: _382  and  _384
REMARK  163  A    between atoms: _384  and  _385
REMARK  164  A    between atoms: _384  and  _387
REMARK  165  A    between atoms: _387  and  _388
REMARK  166  A    between atoms: _391  and  _393
REMARK  167  A    between atoms: _393  and  _394
REMARK  168  A    between atoms: _393  and  _396
REMARK  169  A    between atoms: _396  and  _397
REMARK  170  A    between atoms: _399  and  _401
REMARK  171  A    between atoms: _401  and  _402
REMARK  172  A    between atoms: _401  and  _404
REMARK  173  A    between atoms: _404  and  _405
REMARK  174  A    between atoms: _405  and  _406
REMARK  175  A    between atoms: _406  and  _407
REMARK  176  A    between atoms: _407  and  _408
REMARK  177  A    between atoms: _412  and  _414
REMARK  178  A    between atoms: _414  and  _415
REMARK  179  A    between atoms: _414  and  _417
REMARK  180  A    between atoms: _417  and  _418
REMARK  181  A    between atoms: _421  and  _423
REMARK  182  A    between atoms: _423  and  _424
REMARK  183  A    between atoms: _423  and  _426
REMARK  184  A    between atoms: _426  and  _427
REMARK  185  A    between atoms: _427  and  _428
REMARK  186  A    between atoms: _431  and  _433
REMARK  187  A    between atoms: _433  and  _434
REMARK  188  A    between atoms: _437  and  _439
REMARK  189  A    between atoms: _439  and  _440
REMARK  190  A    between atoms: _439  and  _442
REMARK  191  A    between atoms: _445  and  _447
REMARK  192  A    between atoms: _447  and  _448
REMARK  193  A    between atoms: _447  and  _450
REMARK  194  A    between atoms: _450  and  _451
REMARK  195  A    between atoms: _453  and  _455
REMARK  196  A    between atoms: _455  and  _456
REMARK  197  A    between atoms: _458  and  _460
REMARK  198  A    between atoms: _460  and  _461
REMARK  199  A    between atoms: _460  and  _463
REMARK  200  A    between atoms: _463  and  _464
REMARK  201  A    between atoms: _469  and  _471
REMARK  202  A    between atoms: _471  and  _472
REMARK  203  A    between atoms: _471  and  _474
REMARK  204  A    between atoms: _474  and  _475
REMARK  205  A    between atoms: _480  and  _481
REMARK  206  A    between atoms: _483  and  _485
REMARK  207  A    between atoms: _485  and  _486
REMARK  208  A    between atoms: _485  and  _488
REMARK  209  A    between atoms: _490  and  _492
REMARK  210  A    between atoms: _492  and  _493
REMARK  211  A    between atoms: _492  and  _495
REMARK  212  A    between atoms: _495  and  _496
REMARK  213  A    between atoms: _499  and  _501
REMARK  214  A    between atoms: _501  and  _502
REMARK  215  A    between atoms: _501  and  _504
REMARK  216  A    between atoms: _504  and  _505
REMARK  217  A    between atoms: _508  and  _510
REMARK  218  A    between atoms: _510  and  _511
REMARK  219  A    between atoms: _510  and  _513
REMARK  220  A    between atoms: _513  and  _514
REMARK  221  A    between atoms: _514  and  _515
REMARK  222  A    between atoms: _515  and  _516
REMARK  223  A    between atoms: _516  and  _517
REMARK  224  A    between atoms: _521  and  _523
REMARK  225  A    between atoms: _523  and  _524
REMARK  226  A    between atoms: _523  and  _526
REMARK  227  A    between atoms: _526  and  _527
REMARK  228  A    between atoms: _527  and  _528
REMARK  229  A    between atoms: _528  and  _529
REMARK  230  A    between atoms: _529  and  _530
REMARK  231  A    between atoms: _534  and  _536
REMARK  232  A    between atoms: _536  and  _537
REMARK  233  A    between atoms: _536  and  _539
REMARK  234  A    between atoms: _539  and  _540
REMARK  235  A    between atoms: _540  and  _541
REMARK  236  A    between atoms: _541  and  _542
REMARK  237  A    between atoms: _551  and  _553
REMARK  238  A    between atoms: _553  and  _554
REMARK  239  A    between atoms: _553  and  _556
REMARK  240  A    between atoms: _556  and  _557
REMARK  241  A    between atoms: _560  and  _562
REMARK  242  A    between atoms: _562  and  _563
REMARK  243  A    between atoms: _566  and  _568
REMARK  244  A    between atoms: _568  and  _569
REMARK  245  A    between atoms: _568  and  _571
REMARK  246  A    between atoms: _571  and  _572
REMARK  247  A    between atoms: _572  and  _573
REMARK                            x       y       z     vdW  Elec       q    Type
REMARK                         _______ _______ _______ _____ _____    ______ ____
ROOT
ATOM      1  O   HOH     1     -24.252  10.475  49.398  0.00  0.00    +0.000 OA
ENDROOT
TORSDOF 0
REMARK  Name = ../refined-set-2016/3cd0/3cd0_pocket.pdb
REMARK  247 active torsions:
REMARK  status: ('A' for Active; 'I' for Inactive)
REMARK    1  A    between atoms: _1  and  _3
REMARK    2  A    between atoms: _3  and  _4
REMARK    3  A    between atoms: _3  and  _6
REMARK    4  A    between atoms: _6  and  _7
REMARK    5  A    between atoms: _10  and  _12
REMARK    6  A    between atoms: _12  and  _13
REMARK    7  A    between atoms: _12  and  _15
REMARK    8  A    between atoms: _15  and  _16
REMARK    9  A    between atoms: _16  and  _17
REMARK   10  A    between atoms: _20  and  _22
REMARK   11  A    between atoms: _22  and  _23
REMARK   12  A    between atoms: _25  and  _27
REMARK   13  A    between atoms: _27  and  _28
REMARK   14  A    between atoms: _27  and  _30
REMARK   15  A    between atoms: _32  and  _34
REMARK   16  A    between atoms: _34  and  _35
REMARK   17  A    between atoms: _34  and  _37
REMARK   18  A    between atoms: _37  and  _38
REMARK   19  A    between atoms: _41  and  _43
REMARK   20  A    between atoms: _43  and  _44
REMARK   21  A    between atoms: _43  and  _46
REMARK   22  A    between atoms: _49  and  _51
REMARK   23  A    between atoms: _51  and  _52
REMARK   24  A    between atoms: _55  and  _57
REMARK   25  A    between atoms: _57  and  _58
REMARK   26  A    between atoms: _57  and  _60
REMARK   27  A    between atoms: _60  and  _61
REMARK   28  A    between atoms: _63  and  _65
REMARK   29  A    between atoms: _65  and  _66
REMARK   30  A    between atoms: _65  and  _68
REMARK   31  A    between atoms: _68  and  _69
REMARK   32  A    between atoms: _72  and  _74
REMARK   33  A    between atoms: _74  and  _75
REMARK   34  A    between atoms: _74  and  _77
REMARK   35  A    between atoms: _77  and  _78
REMARK   36  A    between atoms: _83  and  _85
REMARK   37  A    between atoms: _85  and  _86
REMARK   38  A    between atoms: _85  and  _88
REMARK   39  A    between atoms: _88  and  _89
REMARK   40  A    between atoms: _89  and  _90
REMARK   41  A    between atoms: _90  and  _91
REMARK   42  A    between atoms: _100  and  _102
REMARK   43  A    between atoms: _102  and  _103
REMARK   44  A    between atoms: _105  and  _107
REMARK   45  A    between atoms: _107  and  _108
REMARK   46  A    between atoms: _107  and  _110
REMARK   47  A    between atoms: _113  and  _115
REMARK   48  A    between atoms: _115  and  _116
REMARK   49  A    between atoms: _115  and  _118
REMARK   50  A    between atoms: _118  and  _119
REMARK   51  A    between atoms: _122  and  _124
REMARK   52  A    between atoms: _124  and  _125
REMARK   53  A    between atoms: _124  and  _127
REMARK   54  A    between atoms: _127  and  _128
REMARK   55  A    between atoms: _128  and  _129
REMARK   56  A    between atoms: _129  and  _130
REMARK   57  A    between atoms: _130  and  _131
REMARK   58  A    between atoms: _135  and  _137
REMARK   59  A    between atoms: _137  and  _138
REMARK   60  A    between atoms: _137  and  _140
REMARK   61  A    between atoms: _140  and  _141
REMARK   62  A    between atoms: _141  and  _142
REMARK   63  A    between atoms: _142  and  _143
REMARK   64  A    between atoms: _143  and  _144
REMARK   65  A    between atoms: _148  and  _150
REMARK   66  A    between atoms: _150  and  _151
REMARK   67  A    between atoms: _150  and  _153
REMARK   68  A    between atoms: _153  and  _154
REMARK   69  A    between atoms: _159  and  _161
REMARK   70  A    between atoms: _161  and  _162
REMARK   71  A    between atoms: _161  and  _164
REMARK   72  A    between atoms: _164  and  _165
REMARK   73  A    between atoms: _170  and  _172
REMARK   74  A    between atoms: _172  and  _173
REMARK   75  A    between atoms: _176  and  _178
REMARK   76  A    between atoms: _178  and  _179
REMARK   77  A    between atoms: _178  and  _181
REMARK   78  A    between atoms: _181  and  _182
REMARK   79  A    between atoms: _187  and  _189
REMARK   80  A    between atoms: _189  and  _190
REMARK   81  A    between atoms: _193  and  _195
REMARK   82  A    between atoms: _195  and  _196
REMARK   83  A    between atoms: _199  and  _201
REMARK   84  A    between atoms: _201  and  _202
REMARK   85  A    between atoms: _201  and  _204
REMARK   86  A    between atoms: _204  and  _205
REMARK   87  A    between atoms: _210  and  _212
REMARK   88  A    between atoms: _212  and  _213
REMARK   89  A    between atoms: _212  and  _215
REMARK   90  A    between atoms: _215  and  _216
REMARK   91  A    between atoms: _219  and  _221
REMARK   92  A    between atoms: _221  and  _222
REMARK   93  A    between atoms: _224  and  _226
REMARK   94  A    between atoms: _226  and  _227
REMARK   95  A    between atoms: _226  and  _229
REMARK   96  A    between atoms: _229  and  _230
REMARK   97  A    between atoms: _230  and  _231
REMARK   98  A    between atoms: _234  and  _236
REMARK   99  A    between atoms: _236  and  _237
REMARK  100  A    between atoms: _236  and  _239
REMARK  101  A    between atoms: _239  and  _240
REMARK  102  A    between atoms: _243  and  _245
REMARK  103  A    between atoms: _245  and  _246
REMARK  104  A    between atoms: _245  and  _248
REMARK  105  A    between atoms: _248  and  _249
REMARK  106  A    between atoms: _251  and  _253
REMARK  107  A    between atoms: _253  and  _254
REMARK  108  A    between atoms: _253  and  _256
REMARK  109  A    between atoms: _256  and  _257
REMARK  110  A    between atoms: _260  and  _262
REMARK  111  A    between atoms: _262  and  _263
REMARK  112  A    between atoms: _262  and  _265
REMARK  113  A    between atoms: _265  and  _266
REMARK  114  A    between atoms: _266  and  _267
REMARK  115  A    between atoms: _269  and  _271
REMARK  116  A    between atoms: _271  and  _272
REMARK  117  A    between atoms: _275  and  _277
REMARK  118  A    between atoms: _277  and  _278
REMARK  119  A    between atoms: _281  and  _283
REMARK  120  A    between atoms: _283  and  _284
REMARK  121  A    between atoms: _283  and  _286
REMARK  122  A    between atoms: _286  and  _287
REMARK  123  A    between atoms: _290  and  _292
REMARK  124  A    between atoms: _292  and  _293
REMARK  125  A    between atoms: _292  and  _295
REMARK  126  A    between atoms: _295  and  _296
REMARK  127  A    between atoms: _301  and  _303
REMARK  128  A    between atoms: _303  and  _304
REMARK  129  A    between atoms: _303  and  _306
REMARK  130  A    between atoms: _306  and  _307
REMARK  131  A    between atoms: _307  and  _308
REMARK  132  A    between atoms: _311  and  _313
REMARK  133  A    between atoms: _313  and  _314
REMARK  134  A    between atoms: _313  and  _316
REMARK  135  A    between atoms: _316  and  _317
REMARK  136  A    between atoms: _322  and  _324
REMARK  137  A    between atoms: _324  and  _325
REMARK  138  A    between atoms: _324  and  _327
REMARK  139  A    between atoms: _327  and  _328
REMARK  140  A    between atoms: _331  and  _333
REMARK  141  A    between atoms: _333  and  _334
REMARK  142  A    between atoms: _333  and  _336
REMARK  143  A    between atoms: _336  and  _337
REMARK  144  A    between atoms: _337  and  _338
REMARK  145  A    between atoms: _338  and  _339
REMARK  146  A    between atoms: _348  and  _350
REMARK  147  A    between atoms: _350  and  _351
REMARK  148  A    between atoms: _353  and  _355
REMARK  149  A    between atoms: _355  and  _356
REMARK  150  A    between atoms: _355  and  _358
REMARK  151  A    between atoms: _358  and  _359
REMARK  152  A    between atoms: _359  and  _360
REMARK  153  A    between atoms: _362  and  _364
REMARK  154  A    between atoms: _364  and  _365
REMARK  155  A    between atoms: _364  and  _367
REMARK  156  A    between atoms: _367  and  _368
REMARK  157  A    between atoms: _368  and  _369
REMARK  158  A    between atoms: _371  and  _373
REMARK  159  A    between atoms: _373  and  _374
REMARK  160  A    between atoms: _373  and  _376
REMARK  161  A    between atoms: _376  and  _377
REMARK  162  A    between atoms: _382  and  _384
REMARK  163  A    between atoms: _384  and  _385
REMARK  164  A    between atoms: _384  and  _387
REMARK  165  A    between atoms: _387  and  _388
REMARK  166  A    between atoms: _391  and  _393
REMARK  167  A    between atoms: _393  and  _394
REMARK  168  A    between atoms: _393  and  _396
REMARK  169  A    between atoms: _396  and  _397
REMARK  170  A    between atoms: _399  and  _401
REMARK  171  A    between atoms: _401  and  _402
REMARK  172  A    between atoms: _401  and  _404
REMARK  173  A    between atoms: _404  and  _405
REMARK  174  A    between atoms: _405  and  _406
REMARK  175  A    between atoms: _406  and  _407
REMARK  176  A    between atoms: _407  and  _408
REMARK  177  A    between atoms: _412  and  _414
REMARK  178  A    between atoms: _414  and  _415
REMARK  179  A    between atoms: _414  and  _417
REMARK  180  A    between atoms: _417  and  _418
REMARK  181  A    between atoms: _421  and  _423
REMARK  182  A    between atoms: _423  and  _424
REMARK  183  A    between atoms: _423  and  _426
REMARK  184  A    between atoms: _426  and  _427
REMARK  185  A    between atoms: _427  and  _428
REMARK  186  A    between atoms: _431  and  _433
REMARK  187  A    between atoms: _433  and  _434
REMARK  188  A    between atoms: _437  and  _439
REMARK  189  A    between atoms: _439  and  _440
REMARK  190  A    between atoms: _439  and  _442
REMARK  191  A    between atoms: _445  and  _447
REMARK  192  A    between atoms: _447  and  _448
REMARK  193  A    between atoms: _447  and  _450
REMARK  194  A    between atoms: _450  and  _451
REMARK  195  A    between atoms: _453  and  _455
REMARK  196  A    between atoms: _455  and  _456
REMARK  197  A    between atoms: _458  and  _460
REMARK  198  A    between atoms: _460  and  _461
REMARK  199  A    between atoms: _460  and  _463
REMARK  200  A    between atoms: _463  and  _464
REMARK  201  A    between atoms: _469  and  _471
REMARK  202  A    between atoms: _471  and  _472
REMARK  203  A    between atoms: _471  and  _474
REMARK  204  A    between atoms: _474  and  _475
REMARK  205  A    between atoms: _480  and  _481
REMARK  206  A    between atoms: _483  and  _485
REMARK  207  A    between atoms: _485  and  _486
REMARK  208  A    between atoms: _485  and  _488
REMARK  209  A    between atoms: _490  and  _492
REMARK  210  A    between atoms: _492  and  _493
REMARK  211  A    between atoms: _492  and  _495
REMARK  212  A    between atoms: _495  and  _496
REMARK  213  A    between atoms: _499  and  _501
REMARK  214  A    between atoms: _501  and  _502
REMARK  215  A    between atoms: _501  and  _504
REMARK  216  A    between atoms: _504  and  _505
REMARK  217  A    between atoms: _508  and  _510
REMARK  218  A    between atoms: _510  and  _511
REMARK  219  A    between atoms: _510  and  _513
REMARK  220  A    between atoms: _513  and  _514
REMARK  221  A    between atoms: _514  and  _515
REMARK  222  A    between atoms: _515  and  _516
REMARK  223  A    between atoms: _516  and  _517
REMARK  224  A    between atoms: _521  and  _523
REMARK  225  A    between atoms: _523  and  _524
REMARK  226  A    between atoms: _523  and  _526
REMARK  227  A    between atoms: _526  and  _527
REMARK  228  A    between atoms: _527  and  _528
REMARK  229  A    between atoms: _528  and  _529
REMARK  230  A    between atoms: _529  and  _530
REMARK  231  A    between atoms: _534  and  _536
REMARK  232  A    between atoms: _536  and  _537
REMARK  233  A    between atoms: _536  and  _539
REMARK  234  A    between atoms: _539  and  _540
REMARK  235  A    between atoms: _540  and  _541
REMARK  236  A    between atoms: _541  and  _542
REMARK  237  A    between atoms: _551  and  _553
REMARK  238  A    between atoms: _553  and  _554
REMARK  239  A    between atoms: _553  and  _556
REMARK  240  A    between atoms: _556  and  _557
REMARK  241  A    between atoms: _560  and  _562
REMARK  242  A    between atoms: _562  and  _563
REMARK  243  A    between atoms: _566  and  _568
REMARK  244  A    between atoms: _568  and  _569
REMARK  245  A    between atoms: _568  and  _571
REMARK  246  A    between atoms: _571  and  _572
REMARK  247  A    between atoms: _572  and  _573
REMARK                            x       y       z     vdW  Elec       q    Type
REMARK                         _______ _______ _______ _____ _____    ______ ____
ROOT
ATOM      1  O   HOH     1     -22.909  11.924  51.949  0.00  0.00    +0.000 OA
ENDROOT
TORSDOF 0
REMARK  Name = ../refined-set-2016/3cd0/3cd0_pocket.pdb
REMARK  247 active torsions:
REMARK  status: ('A' for Active; 'I' for Inactive)
REMARK    1  A    between atoms: _1  and  _3
REMARK    2  A    between atoms: _3  and  _4
REMARK    3  A    between atoms: _3  and  _6
REMARK    4  A    between atoms: _6  and  _7
REMARK    5  A    between atoms: _10  and  _12
REMARK    6  A    between atoms: _12  and  _13
REMARK    7  A    between atoms: _12  and  _15
REMARK    8  A    between atoms: _15  and  _16
REMARK    9  A    between atoms: _16  and  _17
REMARK   10  A    between atoms: _20  and  _22
REMARK   11  A    between atoms: _22  and  _23
REMARK   12  A    between atoms: _25  and  _27
REMARK   13  A    between atoms: _27  and  _28
REMARK   14  A    between atoms: _27  and  _30
REMARK   15  A    between atoms: _32  and  _34
REMARK   16  A    between atoms: _34  and  _35
REMARK   17  A    between atoms: _34  and  _37
REMARK   18  A    between atoms: _37  and  _38
REMARK   19  A    between atoms: _41  and  _43
REMARK   20  A    between atoms: _43  and  _44
REMARK   21  A    between atoms: _43  and  _46
REMARK   22  A    between atoms: _49  and  _51
REMARK   23  A    between atoms: _51  and  _52
REMARK   24  A    between atoms: _55  and  _57
REMARK   25  A    between atoms: _57  and  _58
REMARK   26  A    between atoms: _57  and  _60
REMARK   27  A    between atoms: _60  and  _61
REMARK   28  A    between atoms: _63  and  _65
REMARK   29  A    between atoms: _65  and  _66
REMARK   30  A    between atoms: _65  and  _68
REMARK   31  A    between atoms: _68  and  _69
REMARK   32  A    between atoms: _72  and  _74
REMARK   33  A    between atoms: _74  and  _75
REMARK   34  A    between atoms: _74  and  _77
REMARK   35  A    between atoms: _77  and  _78
REMARK   36  A    between atoms: _83  and  _85
REMARK   37  A    between atoms: _85  and  _86
REMARK   38  A    between atoms: _85  and  _88
REMARK   39  A    between atoms: _88  and  _89
REMARK   40  A    between atoms: _89  and  _90
REMARK   41  A    between atoms: _90  and  _91
REMARK   42  A    between atoms: _100  and  _102
REMARK   43  A    between atoms: _102  and  _103
REMARK   44  A    between atoms: _105  and  _107
REMARK   45  A    between atoms: _107  and  _108
REMARK   46  A    between atoms: _107  and  _110
REMARK   47  A    between atoms: _113  and  _115
REMARK   48  A    between atoms: _115  and  _116
REMARK   49  A    between atoms: _115  and  _118
REMARK   50  A    between atoms: _118  and  _119
REMARK   51  A    between atoms: _122  and  _124
REMARK   52  A    between atoms: _124  and  _125
REMARK   53  A    between atoms: _124  and  _127
REMARK   54  A    between atoms: _127  and  _128
REMARK   55  A    between atoms: _128  and  _129
REMARK   56  A    between atoms: _129  and  _130
REMARK   57  A    between atoms: _130  and  _131
REMARK   58  A    between atoms: _135  and  _137
REMARK   59  A    between atoms: _137  and  _138
REMARK   60  A    between atoms: _137  and  _140
REMARK   61  A    between atoms: _140  and  _141
REMARK   62  A    between atoms: _141  and  _142
REMARK   63  A    between atoms: _142  and  _143
REMARK   64  A    between atoms: _143  and  _144
REMARK   65  A    between atoms: _148  and  _150
REMARK   66  A    between atoms: _150  and  _151
REMARK   67  A    between atoms: _150  and  _153
REMARK   68  A    between atoms: _153  and  _154
REMARK   69  A    between atoms: _159  and  _161
REMARK   70  A    between atoms: _161  and  _162
REMARK   71  A    between atoms: _161  and  _164
REMARK   72  A    between atoms: _164  and  _165
REMARK   73  A    between atoms: _170  and  _172
REMARK   74  A    between atoms: _172  and  _173
REMARK   75  A    between atoms: _176  and  _178
REMARK   76  A    between atoms: _178  and  _179
REMARK   77  A    between atoms: _178  and  _181
REMARK   78  A    between atoms: _181  and  _182
REMARK   79  A    between atoms: _187  and  _189
REMARK   80  A    between atoms: _189  and  _190
REMARK   81  A    between atoms: _193  and  _195
REMARK   82  A    between atoms: _195  and  _196
REMARK   83  A    between atoms: _199  and  _201
REMARK   84  A    between atoms: _201  and  _202
REMARK   85  A    between atoms: _201  and  _204
REMARK   86  A    between atoms: _204  and  _205
REMARK   87  A    between atoms: _210  and  _212
REMARK   88  A    between atoms: _212  and  _213
REMARK   89  A    between atoms: _212  and  _215
REMARK   90  A    between atoms: _215  and  _216
REMARK   91  A    between atoms: _219  and  _221
REMARK   92  A    between atoms: _221  and  _222
REMARK   93  A    between atoms: _224  and  _226
REMARK   94  A    between atoms: _226  and  _227
REMARK   95  A    between atoms: _226  and  _229
REMARK   96  A    between atoms: _229  and  _230
REMARK   97  A    between atoms: _230  and  _231
REMARK   98  A    between atoms: _234  and  _236
REMARK   99  A    between atoms: _236  and  _237
REMARK  100  A    between atoms: _236  and  _239
REMARK  101  A    between atoms: _239  and  _240
REMARK  102  A    between atoms: _243  and  _245
REMARK  103  A    between atoms: _245  and  _246
REMARK  104  A    between atoms: _245  and  _248
REMARK  105  A    between atoms: _248  and  _249
REMARK  106  A    between atoms: _251  and  _253
REMARK  107  A    between atoms: _253  and  _254
REMARK  108  A    between atoms: _253  and  _256
REMARK  109  A    between atoms: _256  and  _257
REMARK  110  A    between atoms: _260  and  _262
REMARK  111  A    between atoms: _262  and  _263
REMARK  112  A    between atoms: _262  and  _265
REMARK  113  A    between atoms: _265  and  _266
REMARK  114  A    between atoms: _266  and  _267
REMARK  115  A    between atoms: _269  and  _271
REMARK  116  A    between atoms: _271  and  _272
REMARK  117  A    between atoms: _275  and  _277
REMARK  118  A    between atoms: _277  and  _278
REMARK  119  A    between atoms: _281  and  _283
REMARK  120  A    between atoms: _283  and  _284
REMARK  121  A    between atoms: _283  and  _286
REMARK  122  A    between atoms: _286  and  _287
REMARK  123  A    between atoms: _290  and  _292
REMARK  124  A    between atoms: _292  and  _293
REMARK  125  A    between atoms: _292  and  _295
REMARK  126  A    between atoms: _295  and  _296
REMARK  127  A    between atoms: _301  and  _303
REMARK  128  A    between atoms: _303  and  _304
REMARK  129  A    between atoms: _303  and  _306
REMARK  130  A    between atoms: _306  and  _307
REMARK  131  A    between atoms: _307  and  _308
REMARK  132  A    between atoms: _311  and  _313
REMARK  133  A    between atoms: _313  and  _314
REMARK  134  A    between atoms: _313  and  _316
REMARK  135  A    between atoms: _316  and  _317
REMARK  136  A    between atoms: _322  and  _324
REMARK  137  A    between atoms: _324  and  _325
REMARK  138  A    between atoms: _324  and  _327
REMARK  139  A    between atoms: _327  and  _328
REMARK  140  A    between atoms: _331  and  _333
REMARK  141  A    between atoms: _333  and  _334
REMARK  142  A    between atoms: _333  and  _336
REMARK  143  A    between atoms: _336  and  _337
REMARK  144  A    between atoms: _337  and  _338
REMARK  145  A    between atoms: _338  and  _339
REMARK  146  A    between atoms: _348  and  _350
REMARK  147  A    between atoms: _350  and  _351
REMARK  148  A    between atoms: _353  and  _355
REMARK  149  A    between atoms: _355  and  _356
REMARK  150  A    between atoms: _355  and  _358
REMARK  151  A    between atoms: _358  and  _359
REMARK  152  A    between atoms: _359  and  _360
REMARK  153  A    between atoms: _362  and  _364
REMARK  154  A    between atoms: _364  and  _365
REMARK  155  A    between atoms: _364  and  _367
REMARK  156  A    between atoms: _367  and  _368
REMARK  157  A    between atoms: _368  and  _369
REMARK  158  A    between atoms: _371  and  _373
REMARK  159  A    between atoms: _373  and  _374
REMARK  160  A    between atoms: _373  and  _376
REMARK  161  A    between atoms: _376  and  _377
REMARK  162  A    between atoms: _382  and  _384
REMARK  163  A    between atoms: _384  and  _385
REMARK  164  A    between atoms: _384  and  _387
REMARK  165  A    between atoms: _387  and  _388
REMARK  166  A    between atoms: _391  and  _393
REMARK  167  A    between atoms: _393  and  _394
REMARK  168  A    between atoms: _393  and  _396
REMARK  169  A    between atoms: _396  and  _397
REMARK  170  A    between atoms: _399  and  _401
REMARK  171  A    between atoms: _401  and  _402
REMARK  172  A    between atoms: _401  and  _404
REMARK  173  A    between atoms: _404  and  _405
REMARK  174  A    between atoms: _405  and  _406
REMARK  175  A    between atoms: _406  and  _407
REMARK  176  A    between atoms: _407  and  _408
REMARK  177  A    between atoms: _412  and  _414
REMARK  178  A    between atoms: _414  and  _415
REMARK  179  A    between atoms: _414  and  _417
REMARK  180  A    between atoms: _417  and  _418
REMARK  181  A    between atoms: _421  and  _423
REMARK  182  A    between atoms: _423  and  _424
REMARK  183  A    between atoms: _423  and  _426
REMARK  184  A    between atoms: _426  and  _427
REMARK  185  A    between atoms: _427  and  _428
REMARK  186  A    between atoms: _431  and  _433
REMARK  187  A    between atoms: _433  and  _434
REMARK  188  A    between atoms: _437  and  _439
REMARK  189  A    between atoms: _439  and  _440
REMARK  190  A    between atoms: _439  and  _442
REMARK  191  A    between atoms: _445  and  _447
REMARK  192  A    between atoms: _447  and  _448
REMARK  193  A    between atoms: _447  and  _450
REMARK  194  A    between atoms: _450  and  _451
REMARK  195  A    between atoms: _453  and  _455
REMARK  196  A    between atoms: _455  and  _456
REMARK  197  A    between atoms: _458  and  _460
REMARK  198  A    between atoms: _460  and  _461
REMARK  199  A    between atoms: _460  and  _463
REMARK  200  A    between atoms: _463  and  _464
REMARK  201  A    between atoms: _469  and  _471
REMARK  202  A    between atoms: _471  and  _472
REMARK  203  A    between atoms: _471  and  _474
REMARK  204  A    between atoms: _474  and  _475
REMARK  205  A    between atoms: _480  and  _481
REMARK  206  A    between atoms: _483  and  _485
REMARK  207  A    between atoms: _485  and  _486
REMARK  208  A    between atoms: _485  and  _488
REMARK  209  A    between atoms: _490  and  _492
REMARK  210  A    between atoms: _492  and  _493
REMARK  211  A    between atoms: _492  and  _495
REMARK  212  A    between atoms: _495  and  _496
REMARK  213  A    between atoms: _499  and  _501
REMARK  214  A    between atoms: _501  and  _502
REMARK  215  A    between atoms: _501  and  _504
REMARK  216  A    between atoms: _504  and  _505
REMARK  217  A    between atoms: _508  and  _510
REMARK  218  A    between atoms: _510  and  _511
REMARK  219  A    between atoms: _510  and  _513
REMARK  220  A    between atoms: _513  and  _514
REMARK  221  A    between atoms: _514  and  _515
REMARK  222  A    between atoms: _515  and  _516
REMARK  223  A    between atoms: _516  and  _517
REMARK  224  A    between atoms: _521  and  _523
REMARK  225  A    between atoms: _523  and  _524
REMARK  226  A    between atoms: _523  and  _526
REMARK  227  A    between atoms: _526  and  _527
REMARK  228  A    between atoms: _527  and  _528
REMARK  229  A    between atoms: _528  and  _529
REMARK  230  A    between atoms: _529  and  _530
REMARK  231  A    between atoms: _534  and  _536
REMARK  232  A    between atoms: _536  and  _537
REMARK  233  A    between atoms: _536  and  _539
REMARK  234  A    between atoms: _539  and  _540
REMARK  235  A    between atoms: _540  and  _541
REMARK  236  A    between atoms: _541  and  _542
REMARK  237  A    between atoms: _551  and  _553
REMARK  238  A    between atoms: _553  and  _554
REMARK  239  A    between atoms: _553  and  _556
REMARK  240  A    between atoms: _556  and  _557
REMARK  241  A    between atoms: _560  and  _562
REMARK  242  A    between atoms: _562  and  _563
REMARK  243  A    between atoms: _566  and  _568
REMARK  244  A    between atoms: _568  and  _569
REMARK  245  A    between atoms: _568  and  _571
REMARK  246  A    between atoms: _571  and  _572
REMARK  247  A    between atoms: _572  and  _573
REMARK                            x       y       z     vdW  Elec       q    Type
REMARK                         _______ _______ _______ _____ _____    ______ ____
ROOT
ATOM      1  O   HOH     1     -19.825   3.319  42.952  0.00  0.00    +0.000 OA
ENDROOT
TORSDOF 0
REMARK  Name = ../refined-set-2016/3cd0/3cd0_pocket.pdb
REMARK  247 active torsions:
REMARK  status: ('A' for Active; 'I' for Inactive)
REMARK    1  A    between atoms: _1  and  _3
REMARK    2  A    between atoms: _3  and  _4
REMARK    3  A    between atoms: _3  and  _6
REMARK    4  A    between atoms: _6  and  _7
REMARK    5  A    between atoms: _10  and  _12
REMARK    6  A    between atoms: _12  and  _13
REMARK    7  A    between atoms: _12  and  _15
REMARK    8  A    between atoms: _15  and  _16
REMARK    9  A    between atoms: _16  and  _17
REMARK   10  A    between atoms: _20  and  _22
REMARK   11  A    between atoms: _22  and  _23
REMARK   12  A    between atoms: _25  and  _27
REMARK   13  A    between atoms: _27  and  _28
REMARK   14  A    between atoms: _27  and  _30
REMARK   15  A    between atoms: _32  and  _34
REMARK   16  A    between atoms: _34  and  _35
REMARK   17  A    between atoms: _34  and  _37
REMARK   18  A    between atoms: _37  and  _38
REMARK   19  A    between atoms: _41  and  _43
REMARK   20  A    between atoms: _43  and  _44
REMARK   21  A    between atoms: _43  and  _46
REMARK   22  A    between atoms: _49  and  _51
REMARK   23  A    between atoms: _51  and  _52
REMARK   24  A    between atoms: _55  and  _57
REMARK   25  A    between atoms: _57  and  _58
REMARK   26  A    between atoms: _57  and  _60
REMARK   27  A    between atoms: _60  and  _61
REMARK   28  A    between atoms: _63  and  _65
REMARK   29  A    between atoms: _65  and  _66
REMARK   30  A    between atoms: _65  and  _68
REMARK   31  A    between atoms: _68  and  _69
REMARK   32  A    between atoms: _72  and  _74
REMARK   33  A    between atoms: _74  and  _75
REMARK   34  A    between atoms: _74  and  _77
REMARK   35  A    between atoms: _77  and  _78
REMARK   36  A    between atoms: _83  and  _85
REMARK   37  A    between atoms: _85  and  _86
REMARK   38  A    between atoms: _85  and  _88
REMARK   39  A    between atoms: _88  and  _89
REMARK   40  A    between atoms: _89  and  _90
REMARK   41  A    between atoms: _90  and  _91
REMARK   42  A    between atoms: _100  and  _102
REMARK   43  A    between atoms: _102  and  _103
REMARK   44  A    between atoms: _105  and  _107
REMARK   45  A    between atoms: _107  and  _108
REMARK   46  A    between atoms: _107  and  _110
REMARK   47  A    between atoms: _113  and  _115
REMARK   48  A    between atoms: _115  and  _116
REMARK   49  A    between atoms: _115  and  _118
REMARK   50  A    between atoms: _118  and  _119
REMARK   51  A    between atoms: _122  and  _124
REMARK   52  A    between atoms: _124  and  _125
REMARK   53  A    between atoms: _124  and  _127
REMARK   54  A    between atoms: _127  and  _128
REMARK   55  A    between atoms: _128  and  _129
REMARK   56  A    between atoms: _129  and  _130
REMARK   57  A    between atoms: _130  and  _131
REMARK   58  A    between atoms: _135  and  _137
REMARK   59  A    between atoms: _137  and  _138
REMARK   60  A    between atoms: _137  and  _140
REMARK   61  A    between atoms: _140  and  _141
REMARK   62  A    between atoms: _141  and  _142
REMARK   63  A    between atoms: _142  and  _143
REMARK   64  A    between atoms: _143  and  _144
REMARK   65  A    between atoms: _148  and  _150
REMARK   66  A    between atoms: _150  and  _151
REMARK   67  A    between atoms: _150  and  _153
REMARK   68  A    between atoms: _153  and  _154
REMARK   69  A    between atoms: _159  and  _161
REMARK   70  A    between atoms: _161  and  _162
REMARK   71  A    between atoms: _161  and  _164
REMARK   72  A    between atoms: _164  and  _165
REMARK   73  A    between atoms: _170  and  _172
REMARK   74  A    between atoms: _172  and  _173
REMARK   75  A    between atoms: _176  and  _178
REMARK   76  A    between atoms: _178  and  _179
REMARK   77  A    between atoms: _178  and  _181
REMARK   78  A    between atoms: _181  and  _182
REMARK   79  A    between atoms: _187  and  _189
REMARK   80  A    between atoms: _189  and  _190
REMARK   81  A    between atoms: _193  and  _195
REMARK   82  A    between atoms: _195  and  _196
REMARK   83  A    between atoms: _199  and  _201
REMARK   84  A    between atoms: _201  and  _202
REMARK   85  A    between atoms: _201  and  _204
REMARK   86  A    between atoms: _204  and  _205
REMARK   87  A    between atoms: _210  and  _212
REMARK   88  A    between atoms: _212  and  _213
REMARK   89  A    between atoms: _212  and  _215
REMARK   90  A    between atoms: _215  and  _216
REMARK   91  A    between atoms: _219  and  _221
REMARK   92  A    between atoms: _221  and  _222
REMARK   93  A    between atoms: _224  and  _226
REMARK   94  A    between atoms: _226  and  _227
REMARK   95  A    between atoms: _226  and  _229
REMARK   96  A    between atoms: _229  and  _230
REMARK   97  A    between atoms: _230  and  _231
REMARK   98  A    between atoms: _234  and  _236
REMARK   99  A    between atoms: _236  and  _237
REMARK  100  A    between atoms: _236  and  _239
REMARK  101  A    between atoms: _239  and  _240
REMARK  102  A    between atoms: _243  and  _245
REMARK  103  A    between atoms: _245  and  _246
REMARK  104  A    between atoms: _245  and  _248
REMARK  105  A    between atoms: _248  and  _249
REMARK  106  A    between atoms: _251  and  _253
REMARK  107  A    between atoms: _253  and  _254
REMARK  108  A    between atoms: _253  and  _256
REMARK  109  A    between atoms: _256  and  _257
REMARK  110  A    between atoms: _260  and  _262
REMARK  111  A    between atoms: _262  and  _263
REMARK  112  A    between atoms: _262  and  _265
REMARK  113  A    between atoms: _265  and  _266
REMARK  114  A    between atoms: _266  and  _267
REMARK  115  A    between atoms: _269  and  _271
REMARK  116  A    between atoms: _271  and  _272
REMARK  117  A    between atoms: _275  and  _277
REMARK  118  A    between atoms: _277  and  _278
REMARK  119  A    between atoms: _281  and  _283
REMARK  120  A    between atoms: _283  and  _284
REMARK  121  A    between atoms: _283  and  _286
REMARK  122  A    between atoms: _286  and  _287
REMARK  123  A    between atoms: _290  and  _292
REMARK  124  A    between atoms: _292  and  _293
REMARK  125  A    between atoms: _292  and  _295
REMARK  126  A    between atoms: _295  and  _296
REMARK  127  A    between atoms: _301  and  _303
REMARK  128  A    between atoms: _303  and  _304
REMARK  129  A    between atoms: _303  and  _306
REMARK  130  A    between atoms: _306  and  _307
REMARK  131  A    between atoms: _307  and  _308
REMARK  132  A    between atoms: _311  and  _313
REMARK  133  A    between atoms: _313  and  _314
REMARK  134  A    between atoms: _313  and  _316
REMARK  135  A    between atoms: _316  and  _317
REMARK  136  A    between atoms: _322  and  _324
REMARK  137  A    between atoms: _324  and  _325
REMARK  138  A    between atoms: _324  and  _327
REMARK  139  A    between atoms: _327  and  _328
REMARK  140  A    between atoms: _331  and  _333
REMARK  141  A    between atoms: _333  and  _334
REMARK  142  A    between atoms: _333  and  _336
REMARK  143  A    between atoms: _336  and  _337
REMARK  144  A    between atoms: _337  and  _338
REMARK  145  A    between atoms: _338  and  _339
REMARK  146  A    between atoms: _348  and  _350
REMARK  147  A    between atoms: _350  and  _351
REMARK  148  A    between atoms: _353  and  _355
REMARK  149  A    between atoms: _355  and  _356
REMARK  150  A    between atoms: _355  and  _358
REMARK  151  A    between atoms: _358  and  _359
REMARK  152  A    between atoms: _359  and  _360
REMARK  153  A    between atoms: _362  and  _364
REMARK  154  A    between atoms: _364  and  _365
REMARK  155  A    between atoms: _364  and  _367
REMARK  156  A    between atoms: _367  and  _368
REMARK  157  A    between atoms: _368  and  _369
REMARK  158  A    between atoms: _371  and  _373
REMARK  159  A    between atoms: _373  and  _374
REMARK  160  A    between atoms: _373  and  _376
REMARK  161  A    between atoms: _376  and  _377
REMARK  162  A    between atoms: _382  and  _384
REMARK  163  A    between atoms: _384  and  _385
REMARK  164  A    between atoms: _384  and  _387
REMARK  165  A    between atoms: _387  and  _388
REMARK  166  A    between atoms: _391  and  _393
REMARK  167  A    between atoms: _393  and  _394
REMARK  168  A    between atoms: _393  and  _396
REMARK  169  A    between atoms: _396  and  _397
REMARK  170  A    between atoms: _399  and  _401
REMARK  171  A    between atoms: _401  and  _402
REMARK  172  A    between atoms: _401  and  _404
REMARK  173  A    between atoms: _404  and  _405
REMARK  174  A    between atoms: _405  and  _406
REMARK  175  A    between atoms: _406  and  _407
REMARK  176  A    between atoms: _407  and  _408
REMARK  177  A    between atoms: _412  and  _414
REMARK  178  A    between atoms: _414  and  _415
REMARK  179  A    between atoms: _414  and  _417
REMARK  180  A    between atoms: _417  and  _418
REMARK  181  A    between atoms: _421  and  _423
REMARK  182  A    between atoms: _423  and  _424
REMARK  183  A    between atoms: _423  and  _426
REMARK  184  A    between atoms: _426  and  _427
REMARK  185  A    between atoms: _427  and  _428
REMARK  186  A    between atoms: _431  and  _433
REMARK  187  A    between atoms: _433  and  _434
REMARK  188  A    between atoms: _437  and  _439
REMARK  189  A    between atoms: _439  and  _440
REMARK  190  A    between atoms: _439  and  _442
REMARK  191  A    between atoms: _445  and  _447
REMARK  192  A    between atoms: _447  and  _448
REMARK  193  A    between atoms: _447  and  _450
REMARK  194  A    between atoms: _450  and  _451
REMARK  195  A    between atoms: _453  and  _455
REMARK  196  A    between atoms: _455  and  _456
REMARK  197  A    between atoms: _458  and  _460
REMARK  198  A    between atoms: _460  and  _461
REMARK  199  A    between atoms: _460  and  _463
REMARK  200  A    between atoms: _463  and  _464
REMARK  201  A    between atoms: _469  and  _471
REMARK  202  A    between atoms: _471  and  _472
REMARK  203  A    between atoms: _471  and  _474
REMARK  204  A    between atoms: _474  and  _475
REMARK  205  A    between atoms: _480  and  _481
REMARK  206  A    between atoms: _483  and  _485
REMARK  207  A    between atoms: _485  and  _486
REMARK  208  A    between atoms: _485  and  _488
REMARK  209  A    between atoms: _490  and  _492
REMARK  210  A    between atoms: _492  and  _493
REMARK  211  A    between atoms: _492  and  _495
REMARK  212  A    between atoms: _495  and  _496
REMARK  213  A    between atoms: _499  and  _501
REMARK  214  A    between atoms: _501  and  _502
REMARK  215  A    between atoms: _501  and  _504
REMARK  216  A    between atoms: _504  and  _505
REMARK  217  A    between atoms: _508  and  _510
REMARK  218  A    between atoms: _510  and  _511
REMARK  219  A    between atoms: _510  and  _513
REMARK  220  A    between atoms: _513  and  _514
REMARK  221  A    between atoms: _514  and  _515
REMARK  222  A    between atoms: _515  and  _516
REMARK  223  A    between atoms: _516  and  _517
REMARK  224  A    between atoms: _521  and  _523
REMARK  225  A    between atoms: _523  and  _524
REMARK  226  A    between atoms: _523  and  _526
REMARK  227  A    between atoms: _526  and  _527
REMARK  228  A    between atoms: _527  and  _528
REMARK  229  A    between atoms: _528  and  _529
REMARK  230  A    between atoms: _529  and  _530
REMARK  231  A    between atoms: _534  and  _536
REMARK  232  A    between atoms: _536  and  _537
REMARK  233  A    between atoms: _536  and  _539
REMARK  234  A    between atoms: _539  and  _540
REMARK  235  A    between atoms: _540  and  _541
REMARK  236  A    between atoms: _541  and  _542
REMARK  237  A    between atoms: _551  and  _553
REMARK  238  A    between atoms: _553  and  _554
REMARK  239  A    between atoms: _553  and  _556
REMARK  240  A    between atoms: _556  and  _557
REMARK  241  A    between atoms: _560  and  _562
REMARK  242  A    between atoms: _562  and  _563
REMARK  243  A    between atoms: _566  and  _568
REMARK  244  A    between atoms: _568  and  _569
REMARK  245  A    between atoms: _568  and  _571
REMARK  246  A    between atoms: _571  and  _572
REMARK  247  A    between atoms: _572  and  _573
REMARK                            x       y       z     vdW  Elec       q    Type
REMARK                         _______ _______ _______ _____ _____    ______ ____
ROOT
ATOM      1  O   HOH     1     -14.332   6.261  33.546  0.00  0.00    +0.000 OA
ENDROOT
TORSDOF 0
REMARK  Name = ../refined-set-2016/3cd0/3cd0_pocket.pdb
REMARK  247 active torsions:
REMARK  status: ('A' for Active; 'I' for Inactive)
REMARK    1  A    between atoms: _1  and  _3
REMARK    2  A    between atoms: _3  and  _4
REMARK    3  A    between atoms: _3  and  _6
REMARK    4  A    between atoms: _6  and  _7
REMARK    5  A    between atoms: _10  and  _12
REMARK    6  A    between atoms: _12  and  _13
REMARK    7  A    between atoms: _12  and  _15
REMARK    8  A    between atoms: _15  and  _16
REMARK    9  A    between atoms: _16  and  _17
REMARK   10  A    between atoms: _20  and  _22
REMARK   11  A    between atoms: _22  and  _23
REMARK   12  A    between atoms: _25  and  _27
REMARK   13  A    between atoms: _27  and  _28
REMARK   14  A    between atoms: _27  and  _30
REMARK   15  A    between atoms: _32  and  _34
REMARK   16  A    between atoms: _34  and  _35
REMARK   17  A    between atoms: _34  and  _37
REMARK   18  A    between atoms: _37  and  _38
REMARK   19  A    between atoms: _41  and  _43
REMARK   20  A    between atoms: _43  and  _44
REMARK   21  A    between atoms: _43  and  _46
REMARK   22  A    between atoms: _49  and  _51
REMARK   23  A    between atoms: _51  and  _52
REMARK   24  A    between atoms: _55  and  _57
REMARK   25  A    between atoms: _57  and  _58
REMARK   26  A    between atoms: _57  and  _60
REMARK   27  A    between atoms: _60  and  _61
REMARK   28  A    between atoms: _63  and  _65
REMARK   29  A    between atoms: _65  and  _66
REMARK   30  A    between atoms: _65  and  _68
REMARK   31  A    between atoms: _68  and  _69
REMARK   32  A    between atoms: _72  and  _74
REMARK   33  A    between atoms: _74  and  _75
REMARK   34  A    between atoms: _74  and  _77
REMARK   35  A    between atoms: _77  and  _78
REMARK   36  A    between atoms: _83  and  _85
REMARK   37  A    between atoms: _85  and  _86
REMARK   38  A    between atoms: _85  and  _88
REMARK   39  A    between atoms: _88  and  _89
REMARK   40  A    between atoms: _89  and  _90
REMARK   41  A    between atoms: _90  and  _91
REMARK   42  A    between atoms: _100  and  _102
REMARK   43  A    between atoms: _102  and  _103
REMARK   44  A    between atoms: _105  and  _107
REMARK   45  A    between atoms: _107  and  _108
REMARK   46  A    between atoms: _107  and  _110
REMARK   47  A    between atoms: _113  and  _115
REMARK   48  A    between atoms: _115  and  _116
REMARK   49  A    between atoms: _115  and  _118
REMARK   50  A    between atoms: _118  and  _119
REMARK   51  A    between atoms: _122  and  _124
REMARK   52  A    between atoms: _124  and  _125
REMARK   53  A    between atoms: _124  and  _127
REMARK   54  A    between atoms: _127  and  _128
REMARK   55  A    between atoms: _128  and  _129
REMARK   56  A    between atoms: _129  and  _130
REMARK   57  A    between atoms: _130  and  _131
REMARK   58  A    between atoms: _135  and  _137
REMARK   59  A    between atoms: _137  and  _138
REMARK   60  A    between atoms: _137  and  _140
REMARK   61  A    between atoms: _140  and  _141
REMARK   62  A    between atoms: _141  and  _142
REMARK   63  A    between atoms: _142  and  _143
REMARK   64  A    between atoms: _143  and  _144
REMARK   65  A    between atoms: _148  and  _150
REMARK   66  A    between atoms: _150  and  _151
REMARK   67  A    between atoms: _150  and  _153
REMARK   68  A    between atoms: _153  and  _154
REMARK   69  A    between atoms: _159  and  _161
REMARK   70  A    between atoms: _161  and  _162
REMARK   71  A    between atoms: _161  and  _164
REMARK   72  A    between atoms: _164  and  _165
REMARK   73  A    between atoms: _170  and  _172
REMARK   74  A    between atoms: _172  and  _173
REMARK   75  A    between atoms: _176  and  _178
REMARK   76  A    between atoms: _178  and  _179
REMARK   77  A    between atoms: _178  and  _181
REMARK   78  A    between atoms: _181  and  _182
REMARK   79  A    between atoms: _187  and  _189
REMARK   80  A    between atoms: _189  and  _190
REMARK   81  A    between atoms: _193  and  _195
REMARK   82  A    between atoms: _195  and  _196
REMARK   83  A    between atoms: _199  and  _201
REMARK   84  A    between atoms: _201  and  _202
REMARK   85  A    between atoms: _201  and  _204
REMARK   86  A    between atoms: _204  and  _205
REMARK   87  A    between atoms: _210  and  _212
REMARK   88  A    between atoms: _212  and  _213
REMARK   89  A    between atoms: _212  and  _215
REMARK   90  A    between atoms: _215  and  _216
REMARK   91  A    between atoms: _219  and  _221
REMARK   92  A    between atoms: _221  and  _222
REMARK   93  A    between atoms: _224  and  _226
REMARK   94  A    between atoms: _226  and  _227
REMARK   95  A    between atoms: _226  and  _229
REMARK   96  A    between atoms: _229  and  _230
REMARK   97  A    between atoms: _230  and  _231
REMARK   98  A    between atoms: _234  and  _236
REMARK   99  A    between atoms: _236  and  _237
REMARK  100  A    between atoms: _236  and  _239
REMARK  101  A    between atoms: _239  and  _240
REMARK  102  A    between atoms: _243  and  _245
REMARK  103  A    between atoms: _245  and  _246
REMARK  104  A    between atoms: _245  and  _248
REMARK  105  A    between atoms: _248  and  _249
REMARK  106  A    between atoms: _251  and  _253
REMARK  107  A    between atoms: _253  and  _254
REMARK  108  A    between atoms: _253  and  _256
REMARK  109  A    between atoms: _256  and  _257
REMARK  110  A    between atoms: _260  and  _262
REMARK  111  A    between atoms: _262  and  _263
REMARK  112  A    between atoms: _262  and  _265
REMARK  113  A    between atoms: _265  and  _266
REMARK  114  A    between atoms: _266  and  _267
REMARK  115  A    between atoms: _269  and  _271
REMARK  116  A    between atoms: _271  and  _272
REMARK  117  A    between atoms: _275  and  _277
REMARK  118  A    between atoms: _277  and  _278
REMARK  119  A    between atoms: _281  and  _283
REMARK  120  A    between atoms: _283  and  _284
REMARK  121  A    between atoms: _283  and  _286
REMARK  122  A    between atoms: _286  and  _287
REMARK  123  A    between atoms: _290  and  _292
REMARK  124  A    between atoms: _292  and  _293
REMARK  125  A    between atoms: _292  and  _295
REMARK  126  A    between atoms: _295  and  _296
REMARK  127  A    between atoms: _301  and  _303
REMARK  128  A    between atoms: _303  and  _304
REMARK  129  A    between atoms: _303  and  _306
REMARK  130  A    between atoms: _306  and  _307
REMARK  131  A    between atoms: _307  and  _308
REMARK  132  A    between atoms: _311  and  _313
REMARK  133  A    between atoms: _313  and  _314
REMARK  134  A    between atoms: _313  and  _316
REMARK  135  A    between atoms: _316  and  _317
REMARK  136  A    between atoms: _322  and  _324
REMARK  137  A    between atoms: _324  and  _325
REMARK  138  A    between atoms: _324  and  _327
REMARK  139  A    between atoms: _327  and  _328
REMARK  140  A    between atoms: _331  and  _333
REMARK  141  A    between atoms: _333  and  _334
REMARK  142  A    between atoms: _333  and  _336
REMARK  143  A    between atoms: _336  and  _337
REMARK  144  A    between atoms: _337  and  _338
REMARK  145  A    between atoms: _338  and  _339
REMARK  146  A    between atoms: _348  and  _350
REMARK  147  A    between atoms: _350  and  _351
REMARK  148  A    between atoms: _353  and  _355
REMARK  149  A    between atoms: _355  and  _356
REMARK  150  A    between atoms: _355  and  _358
REMARK  151  A    between atoms: _358  and  _359
REMARK  152  A    between atoms: _359  and  _360
REMARK  153  A    between atoms: _362  and  _364
REMARK  154  A    between atoms: _364  and  _365
REMARK  155  A    between atoms: _364  and  _367
REMARK  156  A    between atoms: _367  and  _368
REMARK  157  A    between atoms: _368  and  _369
REMARK  158  A    between atoms: _371  and  _373
REMARK  159  A    between atoms: _373  and  _374
REMARK  160  A    between atoms: _373  and  _376
REMARK  161  A    between atoms: _376  and  _377
REMARK  162  A    between atoms: _382  and  _384
REMARK  163  A    between atoms: _384  and  _385
REMARK  164  A    between atoms: _384  and  _387
REMARK  165  A    between atoms: _387  and  _388
REMARK  166  A    between atoms: _391  and  _393
REMARK  167  A    between atoms: _393  and  _394
REMARK  168  A    between atoms: _393  and  _396
REMARK  169  A    between atoms: _396  and  _397
REMARK  170  A    between atoms: _399  and  _401
REMARK  171  A    between atoms: _401  and  _402
REMARK  172  A    between atoms: _401  and  _404
REMARK  173  A    between atoms: _404  and  _405
REMARK  174  A    between atoms: _405  and  _406
REMARK  175  A    between atoms: _406  and  _407
REMARK  176  A    between atoms: _407  and  _408
REMARK  177  A    between atoms: _412  and  _414
REMARK  178  A    between atoms: _414  and  _415
REMARK  179  A    between atoms: _414  and  _417
REMARK  180  A    between atoms: _417  and  _418
REMARK  181  A    between atoms: _421  and  _423
REMARK  182  A    between atoms: _423  and  _424
REMARK  183  A    between atoms: _423  and  _426
REMARK  184  A    between atoms: _426  and  _427
REMARK  185  A    between atoms: _427  and  _428
REMARK  186  A    between atoms: _431  and  _433
REMARK  187  A    between atoms: _433  and  _434
REMARK  188  A    between atoms: _437  and  _439
REMARK  189  A    between atoms: _439  and  _440
REMARK  190  A    between atoms: _439  and  _442
REMARK  191  A    between atoms: _445  and  _447
REMARK  192  A    between atoms: _447  and  _448
REMARK  193  A    between atoms: _447  and  _450
REMARK  194  A    between atoms: _450  and  _451
REMARK  195  A    between atoms: _453  and  _455
REMARK  196  A    between atoms: _455  and  _456
REMARK  197  A    between atoms: _458  and  _460
REMARK  198  A    between atoms: _460  and  _461
REMARK  199  A    between atoms: _460  and  _463
REMARK  200  A    between atoms: _463  and  _464
REMARK  201  A    between atoms: _469  and  _471
REMARK  202  A    between atoms: _471  and  _472
REMARK  203  A    between atoms: _471  and  _474
REMARK  204  A    between atoms: _474  and  _475
REMARK  205  A    between atoms: _480  and  _481
REMARK  206  A    between atoms: _483  and  _485
REMARK  207  A    between atoms: _485  and  _486
REMARK  208  A    between atoms: _485  and  _488
REMARK  209  A    between atoms: _490  and  _492
REMARK  210  A    between atoms: _492  and  _493
REMARK  211  A    between atoms: _492  and  _495
REMARK  212  A    between atoms: _495  and  _496
REMARK  213  A    between atoms: _499  and  _501
REMARK  214  A    between atoms: _501  and  _502
REMARK  215  A    between atoms: _501  and  _504
REMARK  216  A    between atoms: _504  and  _505
REMARK  217  A    between atoms: _508  and  _510
REMARK  218  A    between atoms: _510  and  _511
REMARK  219  A    between atoms: _510  and  _513
REMARK  220  A    between atoms: _513  and  _514
REMARK  221  A    between atoms: _514  and  _515
REMARK  222  A    between atoms: _515  and  _516
REMARK  223  A    between atoms: _516  and  _517
REMARK  224  A    between atoms: _521  and  _523
REMARK  225  A    between atoms: _523  and  _524
REMARK  226  A    between atoms: _523  and  _526
REMARK  227  A    between atoms: _526  and  _527
REMARK  228  A    between atoms: _527  and  _528
REMARK  229  A    between atoms: _528  and  _529
REMARK  230  A    between atoms: _529  and  _530
REMARK  231  A    between atoms: _534  and  _536
REMARK  232  A    between atoms: _536  and  _537
REMARK  233  A    between atoms: _536  and  _539
REMARK  234  A    between atoms: _539  and  _540
REMARK  235  A    between atoms: _540  and  _541
REMARK  236  A    between atoms: _541  and  _542
REMARK  237  A    between atoms: _551  and  _553
REMARK  238  A    between atoms: _553  and  _554
REMARK  239  A    between atoms: _553  and  _556
REMARK  240  A    between atoms: _556  and  _557
REMARK  241  A    between atoms: _560  and  _562
REMARK  242  A    between atoms: _562  and  _563
REMARK  243  A    between atoms: _566  and  _568
REMARK  244  A    between atoms: _568  and  _569
REMARK  245  A    between atoms: _568  and  _571
REMARK  246  A    between atoms: _571  and  _572
REMARK  247  A    between atoms: _572  and  _573
REMARK                            x       y       z     vdW  Elec       q    Type
REMARK                         _______ _______ _______ _____ _____    ______ ____
ROOT
ATOM      1  O   HOH     1     -10.183   0.852  41.262  0.00  0.00    +0.000 OA
ENDROOT
TORSDOF 0
REMARK  Name = ../refined-set-2016/3cd0/3cd0_pocket.pdb
REMARK  247 active torsions:
REMARK  status: ('A' for Active; 'I' for Inactive)
REMARK    1  A    between atoms: _1  and  _3
REMARK    2  A    between atoms: _3  and  _4
REMARK    3  A    between atoms: _3  and  _6
REMARK    4  A    between atoms: _6  and  _7
REMARK    5  A    between atoms: _10  and  _12
REMARK    6  A    between atoms: _12  and  _13
REMARK    7  A    between atoms: _12  and  _15
REMARK    8  A    between atoms: _15  and  _16
REMARK    9  A    between atoms: _16  and  _17
REMARK   10  A    between atoms: _20  and  _22
REMARK   11  A    between atoms: _22  and  _23
REMARK   12  A    between atoms: _25  and  _27
REMARK   13  A    between atoms: _27  and  _28
REMARK   14  A    between atoms: _27  and  _30
REMARK   15  A    between atoms: _32  and  _34
REMARK   16  A    between atoms: _34  and  _35
REMARK   17  A    between atoms: _34  and  _37
REMARK   18  A    between atoms: _37  and  _38
REMARK   19  A    between atoms: _41  and  _43
REMARK   20  A    between atoms: _43  and  _44
REMARK   21  A    between atoms: _43  and  _46
REMARK   22  A    between atoms: _49  and  _51
REMARK   23  A    between atoms: _51  and  _52
REMARK   24  A    between atoms: _55  and  _57
REMARK   25  A    between atoms: _57  and  _58
REMARK   26  A    between atoms: _57  and  _60
REMARK   27  A    between atoms: _60  and  _61
REMARK   28  A    between atoms: _63  and  _65
REMARK   29  A    between atoms: _65  and  _66
REMARK   30  A    between atoms: _65  and  _68
REMARK   31  A    between atoms: _68  and  _69
REMARK   32  A    between atoms: _72  and  _74
REMARK   33  A    between atoms: _74  and  _75
REMARK   34  A    between atoms: _74  and  _77
REMARK   35  A    between atoms: _77  and  _78
REMARK   36  A    between atoms: _83  and  _85
REMARK   37  A    between atoms: _85  and  _86
REMARK   38  A    between atoms: _85  and  _88
REMARK   39  A    between atoms: _88  and  _89
REMARK   40  A    between atoms: _89  and  _90
REMARK   41  A    between atoms: _90  and  _91
REMARK   42  A    between atoms: _100  and  _102
REMARK   43  A    between atoms: _102  and  _103
REMARK   44  A    between atoms: _105  and  _107
REMARK   45  A    between atoms: _107  and  _108
REMARK   46  A    between atoms: _107  and  _110
REMARK   47  A    between atoms: _113  and  _115
REMARK   48  A    between atoms: _115  and  _116
REMARK   49  A    between atoms: _115  and  _118
REMARK   50  A    between atoms: _118  and  _119
REMARK   51  A    between atoms: _122  and  _124
REMARK   52  A    between atoms: _124  and  _125
REMARK   53  A    between atoms: _124  and  _127
REMARK   54  A    between atoms: _127  and  _128
REMARK   55  A    between atoms: _128  and  _129
REMARK   56  A    between atoms: _129  and  _130
REMARK   57  A    between atoms: _130  and  _131
REMARK   58  A    between atoms: _135  and  _137
REMARK   59  A    between atoms: _137  and  _138
REMARK   60  A    between atoms: _137  and  _140
REMARK   61  A    between atoms: _140  and  _141
REMARK   62  A    between atoms: _141  and  _142
REMARK   63  A    between atoms: _142  and  _143
REMARK   64  A    between atoms: _143  and  _144
REMARK   65  A    between atoms: _148  and  _150
REMARK   66  A    between atoms: _150  and  _151
REMARK   67  A    between atoms: _150  and  _153
REMARK   68  A    between atoms: _153  and  _154
REMARK   69  A    between atoms: _159  and  _161
REMARK   70  A    between atoms: _161  and  _162
REMARK   71  A    between atoms: _161  and  _164
REMARK   72  A    between atoms: _164  and  _165
REMARK   73  A    between atoms: _170  and  _172
REMARK   74  A    between atoms: _172  and  _173
REMARK   75  A    between atoms: _176  and  _178
REMARK   76  A    between atoms: _178  and  _179
REMARK   77  A    between atoms: _178  and  _181
REMARK   78  A    between atoms: _181  and  _182
REMARK   79  A    between atoms: _187  and  _189
REMARK   80  A    between atoms: _189  and  _190
REMARK   81  A    between atoms: _193  and  _195
REMARK   82  A    between atoms: _195  and  _196
REMARK   83  A    between atoms: _199  and  _201
REMARK   84  A    between atoms: _201  and  _202
REMARK   85  A    between atoms: _201  and  _204
REMARK   86  A    between atoms: _204  and  _205
REMARK   87  A    between atoms: _210  and  _212
REMARK   88  A    between atoms: _212  and  _213
REMARK   89  A    between atoms: _212  and  _215
REMARK   90  A    between atoms: _215  and  _216
REMARK   91  A    between atoms: _219  and  _221
REMARK   92  A    between atoms: _221  and  _222
REMARK   93  A    between atoms: _224  and  _226
REMARK   94  A    between atoms: _226  and  _227
REMARK   95  A    between atoms: _226  and  _229
REMARK   96  A    between atoms: _229  and  _230
REMARK   97  A    between atoms: _230  and  _231
REMARK   98  A    between atoms: _234  and  _236
REMARK   99  A    between atoms: _236  and  _237
REMARK  100  A    between atoms: _236  and  _239
REMARK  101  A    between atoms: _239  and  _240
REMARK  102  A    between atoms: _243  and  _245
REMARK  103  A    between atoms: _245  and  _246
REMARK  104  A    between atoms: _245  and  _248
REMARK  105  A    between atoms: _248  and  _249
REMARK  106  A    between atoms: _251  and  _253
REMARK  107  A    between atoms: _253  and  _254
REMARK  108  A    between atoms: _253  and  _256
REMARK  109  A    between atoms: _256  and  _257
REMARK  110  A    between atoms: _260  and  _262
REMARK  111  A    between atoms: _262  and  _263
REMARK  112  A    between atoms: _262  and  _265
REMARK  113  A    between atoms: _265  and  _266
REMARK  114  A    between atoms: _266  and  _267
REMARK  115  A    between atoms: _269  and  _271
REMARK  116  A    between atoms: _271  and  _272
REMARK  117  A    between atoms: _275  and  _277
REMARK  118  A    between atoms: _277  and  _278
REMARK  119  A    between atoms: _281  and  _283
REMARK  120  A    between atoms: _283  and  _284
REMARK  121  A    between atoms: _283  and  _286
REMARK  122  A    between atoms: _286  and  _287
REMARK  123  A    between atoms: _290  and  _292
REMARK  124  A    between atoms: _292  and  _293
REMARK  125  A    between atoms: _292  and  _295
REMARK  126  A    between atoms: _295  and  _296
REMARK  127  A    between atoms: _301  and  _303
REMARK  128  A    between atoms: _303  and  _304
REMARK  129  A    between atoms: _303  and  _306
REMARK  130  A    between atoms: _306  and  _307
REMARK  131  A    between atoms: _307  and  _308
REMARK  132  A    between atoms: _311  and  _313
REMARK  133  A    between atoms: _313  and  _314
REMARK  134  A    between atoms: _313  and  _316
REMARK  135  A    between atoms: _316  and  _317
REMARK  136  A    between atoms: _322  and  _324
REMARK  137  A    between atoms: _324  and  _325
REMARK  138  A    between atoms: _324  and  _327
REMARK  139  A    between atoms: _327  and  _328
REMARK  140  A    between atoms: _331  and  _333
REMARK  141  A    between atoms: _333  and  _334
REMARK  142  A    between atoms: _333  and  _336
REMARK  143  A    between atoms: _336  and  _337
REMARK  144  A    between atoms: _337  and  _338
REMARK  145  A    between atoms: _338  and  _339
REMARK  146  A    between atoms: _348  and  _350
REMARK  147  A    between atoms: _350  and  _351
REMARK  148  A    between atoms: _353  and  _355
REMARK  149  A    between atoms: _355  and  _356
REMARK  150  A    between atoms: _355  and  _358
REMARK  151  A    between atoms: _358  and  _359
REMARK  152  A    between atoms: _359  and  _360
REMARK  153  A    between atoms: _362  and  _364
REMARK  154  A    between atoms: _364  and  _365
REMARK  155  A    between atoms: _364  and  _367
REMARK  156  A    between atoms: _367  and  _368
REMARK  157  A    between atoms: _368  and  _369
REMARK  158  A    between atoms: _371  and  _373
REMARK  159  A    between atoms: _373  and  _374
REMARK  160  A    between atoms: _373  and  _376
REMARK  161  A    between atoms: _376  and  _377
REMARK  162  A    between atoms: _382  and  _384
REMARK  163  A    between atoms: _384  and  _385
REMARK  164  A    between atoms: _384  and  _387
REMARK  165  A    between atoms: _387  and  _388
REMARK  166  A    between atoms: _391  and  _393
REMARK  167  A    between atoms: _393  and  _394
REMARK  168  A    between atoms: _393  and  _396
REMARK  169  A    between atoms: _396  and  _397
REMARK  170  A    between atoms: _399  and  _401
REMARK  171  A    between atoms: _401  and  _402
REMARK  172  A    between atoms: _401  and  _404
REMARK  173  A    between atoms: _404  and  _405
REMARK  174  A    between atoms: _405  and  _406
REMARK  175  A    between atoms: _406  and  _407
REMARK  176  A    between atoms: _407  and  _408
REMARK  177  A    between atoms: _412  and  _414
REMARK  178  A    between atoms: _414  and  _415
REMARK  179  A    between atoms: _414  and  _417
REMARK  180  A    between atoms: _417  and  _418
REMARK  181  A    between atoms: _421  and  _423
REMARK  182  A    between atoms: _423  and  _424
REMARK  183  A    between atoms: _423  and  _426
REMARK  184  A    between atoms: _426  and  _427
REMARK  185  A    between atoms: _427  and  _428
REMARK  186  A    between atoms: _431  and  _433
REMARK  187  A    between atoms: _433  and  _434
REMARK  188  A    between atoms: _437  and  _439
REMARK  189  A    between atoms: _439  and  _440
REMARK  190  A    between atoms: _439  and  _442
REMARK  191  A    between atoms: _445  and  _447
REMARK  192  A    between atoms: _447  and  _448
REMARK  193  A    between atoms: _447  and  _450
REMARK  194  A    between atoms: _450  and  _451
REMARK  195  A    between atoms: _453  and  _455
REMARK  196  A    between atoms: _455  and  _456
REMARK  197  A    between atoms: _458  and  _460
REMARK  198  A    between atoms: _460  and  _461
REMARK  199  A    between atoms: _460  and  _463
REMARK  200  A    between atoms: _463  and  _464
REMARK  201  A    between atoms: _469  and  _471
REMARK  202  A    between atoms: _471  and  _472
REMARK  203  A    between atoms: _471  and  _474
REMARK  204  A    between atoms: _474  and  _475
REMARK  205  A    between atoms: _480  and  _481
REMARK  206  A    between atoms: _483  and  _485
REMARK  207  A    between atoms: _485  and  _486
REMARK  208  A    between atoms: _485  and  _488
REMARK  209  A    between atoms: _490  and  _492
REMARK  210  A    between atoms: _492  and  _493
REMARK  211  A    between atoms: _492  and  _495
REMARK  212  A    between atoms: _495  and  _496
REMARK  213  A    between atoms: _499  and  _501
REMARK  214  A    between atoms: _501  and  _502
REMARK  215  A    between atoms: _501  and  _504
REMARK  216  A    between atoms: _504  and  _505
REMARK  217  A    between atoms: _508  and  _510
REMARK  218  A    between atoms: _510  and  _511
REMARK  219  A    between atoms: _510  and  _513
REMARK  220  A    between atoms: _513  and  _514
REMARK  221  A    between atoms: _514  and  _515
REMARK  222  A    between atoms: _515  and  _516
REMARK  223  A    between atoms: _516  and  _517
REMARK  224  A    between atoms: _521  and  _523
REMARK  225  A    between atoms: _523  and  _524
REMARK  226  A    between atoms: _523  and  _526
REMARK  227  A    between atoms: _526  and  _527
REMARK  228  A    between atoms: _527  and  _528
REMARK  229  A    between atoms: _528  and  _529
REMARK  230  A    between atoms: _529  and  _530
REMARK  231  A    between atoms: _534  and  _536
REMARK  232  A    between atoms: _536  and  _537
REMARK  233  A    between atoms: _536  and  _539
REMARK  234  A    between atoms: _539  and  _540
REMARK  235  A    between atoms: _540  and  _541
REMARK  236  A    between atoms: _541  and  _542
REMARK  237  A    between atoms: _551  and  _553
REMARK  238  A    between atoms: _553  and  _554
REMARK  239  A    between atoms: _553  and  _556
REMARK  240  A    between atoms: _556  and  _557
REMARK  241  A    between atoms: _560  and  _562
REMARK  242  A    between atoms: _562  and  _563
REMARK  243  A    between atoms: _566  and  _568
REMARK  244  A    between atoms: _568  and  _569
REMARK  245  A    between atoms: _568  and  _571
REMARK  246  A    between atoms: _571  and  _572
REMARK  247  A    between atoms: _572  and  _573
REMARK                            x       y       z     vdW  Elec       q    Type
REMARK                         _______ _______ _______ _____ _____    ______ ____
ROOT
ATOM      1  O   HOH     1     -11.561  13.498  37.316  0.00  0.00    +0.000 OA
ENDROOT
TORSDOF 0
REMARK  Name = ../refined-set-2016/3cd0/3cd0_pocket.pdb
REMARK  247 active torsions:
REMARK  status: ('A' for Active; 'I' for Inactive)
REMARK    1  A    between atoms: _1  and  _3
REMARK    2  A    between atoms: _3  and  _4
REMARK    3  A    between atoms: _3  and  _6
REMARK    4  A    between atoms: _6  and  _7
REMARK    5  A    between atoms: _10  and  _12
REMARK    6  A    between atoms: _12  and  _13
REMARK    7  A    between atoms: _12  and  _15
REMARK    8  A    between atoms: _15  and  _16
REMARK    9  A    between atoms: _16  and  _17
REMARK   10  A    between atoms: _20  and  _22
REMARK   11  A    between atoms: _22  and  _23
REMARK   12  A    between atoms: _25  and  _27
REMARK   13  A    between atoms: _27  and  _28
REMARK   14  A    between atoms: _27  and  _30
REMARK   15  A    between atoms: _32  and  _34
REMARK   16  A    between atoms: _34  and  _35
REMARK   17  A    between atoms: _34  and  _37
REMARK   18  A    between atoms: _37  and  _38
REMARK   19  A    between atoms: _41  and  _43
REMARK   20  A    between atoms: _43  and  _44
REMARK   21  A    between atoms: _43  and  _46
REMARK   22  A    between atoms: _49  and  _51
REMARK   23  A    between atoms: _51  and  _52
REMARK   24  A    between atoms: _55  and  _57
REMARK   25  A    between atoms: _57  and  _58
REMARK   26  A    between atoms: _57  and  _60
REMARK   27  A    between atoms: _60  and  _61
REMARK   28  A    between atoms: _63  and  _65
REMARK   29  A    between atoms: _65  and  _66
REMARK   30  A    between atoms: _65  and  _68
REMARK   31  A    between atoms: _68  and  _69
REMARK   32  A    between atoms: _72  and  _74
REMARK   33  A    between atoms: _74  and  _75
REMARK   34  A    between atoms: _74  and  _77
REMARK   35  A    between atoms: _77  and  _78
REMARK   36  A    between atoms: _83  and  _85
REMARK   37  A    between atoms: _85  and  _86
REMARK   38  A    between atoms: _85  and  _88
REMARK   39  A    between atoms: _88  and  _89
REMARK   40  A    between atoms: _89  and  _90
REMARK   41  A    between atoms: _90  and  _91
REMARK   42  A    between atoms: _100  and  _102
REMARK   43  A    between atoms: _102  and  _103
REMARK   44  A    between atoms: _105  and  _107
REMARK   45  A    between atoms: _107  and  _108
REMARK   46  A    between atoms: _107  and  _110
REMARK   47  A    between atoms: _113  and  _115
REMARK   48  A    between atoms: _115  and  _116
REMARK   49  A    between atoms: _115  and  _118
REMARK   50  A    between atoms: _118  and  _119
REMARK   51  A    between atoms: _122  and  _124
REMARK   52  A    between atoms: _124  and  _125
REMARK   53  A    between atoms: _124  and  _127
REMARK   54  A    between atoms: _127  and  _128
REMARK   55  A    between atoms: _128  and  _129
REMARK   56  A    between atoms: _129  and  _130
REMARK   57  A    between atoms: _130  and  _131
REMARK   58  A    between atoms: _135  and  _137
REMARK   59  A    between atoms: _137  and  _138
REMARK   60  A    between atoms: _137  and  _140
REMARK   61  A    between atoms: _140  and  _141
REMARK   62  A    between atoms: _141  and  _142
REMARK   63  A    between atoms: _142  and  _143
REMARK   64  A    between atoms: _143  and  _144
REMARK   65  A    between atoms: _148  and  _150
REMARK   66  A    between atoms: _150  and  _151
REMARK   67  A    between atoms: _150  and  _153
REMARK   68  A    between atoms: _153  and  _154
REMARK   69  A    between atoms: _159  and  _161
REMARK   70  A    between atoms: _161  and  _162
REMARK   71  A    between atoms: _161  and  _164
REMARK   72  A    between atoms: _164  and  _165
REMARK   73  A    between atoms: _170  and  _172
REMARK   74  A    between atoms: _172  and  _173
REMARK   75  A    between atoms: _176  and  _178
REMARK   76  A    between atoms: _178  and  _179
REMARK   77  A    between atoms: _178  and  _181
REMARK   78  A    between atoms: _181  and  _182
REMARK   79  A    between atoms: _187  and  _189
REMARK   80  A    between atoms: _189  and  _190
REMARK   81  A    between atoms: _193  and  _195
REMARK   82  A    between atoms: _195  and  _196
REMARK   83  A    between atoms: _199  and  _201
REMARK   84  A    between atoms: _201  and  _202
REMARK   85  A    between atoms: _201  and  _204
REMARK   86  A    between atoms: _204  and  _205
REMARK   87  A    between atoms: _210  and  _212
REMARK   88  A    between atoms: _212  and  _213
REMARK   89  A    between atoms: _212  and  _215
REMARK   90  A    between atoms: _215  and  _216
REMARK   91  A    between atoms: _219  and  _221
REMARK   92  A    between atoms: _221  and  _222
REMARK   93  A    between atoms: _224  and  _226
REMARK   94  A    between atoms: _226  and  _227
REMARK   95  A    between atoms: _226  and  _229
REMARK   96  A    between atoms: _229  and  _230
REMARK   97  A    between atoms: _230  and  _231
REMARK   98  A    between atoms: _234  and  _236
REMARK   99  A    between atoms: _236  and  _237
REMARK  100  A    between atoms: _236  and  _239
REMARK  101  A    between atoms: _239  and  _240
REMARK  102  A    between atoms: _243  and  _245
REMARK  103  A    between atoms: _245  and  _246
REMARK  104  A    between atoms: _245  and  _248
REMARK  105  A    between atoms: _248  and  _249
REMARK  106  A    between atoms: _251  and  _253
REMARK  107  A    between atoms: _253  and  _254
REMARK  108  A    between atoms: _253  and  _256
REMARK  109  A    between atoms: _256  and  _257
REMARK  110  A    between atoms: _260  and  _262
REMARK  111  A    between atoms: _262  and  _263
REMARK  112  A    between atoms: _262  and  _265
REMARK  113  A    between atoms: _265  and  _266
REMARK  114  A    between atoms: _266  and  _267
REMARK  115  A    between atoms: _269  and  _271
REMARK  116  A    between atoms: _271  and  _272
REMARK  117  A    between atoms: _275  and  _277
REMARK  118  A    between atoms: _277  and  _278
REMARK  119  A    between atoms: _281  and  _283
REMARK  120  A    between atoms: _283  and  _284
REMARK  121  A    between atoms: _283  and  _286
REMARK  122  A    between atoms: _286  and  _287
REMARK  123  A    between atoms: _290  and  _292
REMARK  124  A    between atoms: _292  and  _293
REMARK  125  A    between atoms: _292  and  _295
REMARK  126  A    between atoms: _295  and  _296
REMARK  127  A    between atoms: _301  and  _303
REMARK  128  A    between atoms: _303  and  _304
REMARK  129  A    between atoms: _303  and  _306
REMARK  130  A    between atoms: _306  and  _307
REMARK  131  A    between atoms: _307  and  _308
REMARK  132  A    between atoms: _311  and  _313
REMARK  133  A    between atoms: _313  and  _314
REMARK  134  A    between atoms: _313  and  _316
REMARK  135  A    between atoms: _316  and  _317
REMARK  136  A    between atoms: _322  and  _324
REMARK  137  A    between atoms: _324  and  _325
REMARK  138  A    between atoms: _324  and  _327
REMARK  139  A    between atoms: _327  and  _328
REMARK  140  A    between atoms: _331  and  _333
REMARK  141  A    between atoms: _333  and  _334
REMARK  142  A    between atoms: _333  and  _336
REMARK  143  A    between atoms: _336  and  _337
REMARK  144  A    between atoms: _337  and  _338
REMARK  145  A    between atoms: _338  and  _339
REMARK  146  A    between atoms: _348  and  _350
REMARK  147  A    between atoms: _350  and  _351
REMARK  148  A    between atoms: _353  and  _355
REMARK  149  A    between atoms: _355  and  _356
REMARK  150  A    between atoms: _355  and  _358
REMARK  151  A    between atoms: _358  and  _359
REMARK  152  A    between atoms: _359  and  _360
REMARK  153  A    between atoms: _362  and  _364
REMARK  154  A    between atoms: _364  and  _365
REMARK  155  A    between atoms: _364  and  _367
REMARK  156  A    between atoms: _367  and  _368
REMARK  157  A    between atoms: _368  and  _369
REMARK  158  A    between atoms: _371  and  _373
REMARK  159  A    between atoms: _373  and  _374
REMARK  160  A    between atoms: _373  and  _376
REMARK  161  A    between atoms: _376  and  _377
REMARK  162  A    between atoms: _382  and  _384
REMARK  163  A    between atoms: _384  and  _385
REMARK  164  A    between atoms: _384  and  _387
REMARK  165  A    between atoms: _387  and  _388
REMARK  166  A    between atoms: _391  and  _393
REMARK  167  A    between atoms: _393  and  _394
REMARK  168  A    between atoms: _393  and  _396
REMARK  169  A    between atoms: _396  and  _397
REMARK  170  A    between atoms: _399  and  _401
REMARK  171  A    between atoms: _401  and  _402
REMARK  172  A    between atoms: _401  and  _404
REMARK  173  A    between atoms: _404  and  _405
REMARK  174  A    between atoms: _405  and  _406
REMARK  175  A    between atoms: _406  and  _407
REMARK  176  A    between atoms: _407  and  _408
REMARK  177  A    between atoms: _412  and  _414
REMARK  178  A    between atoms: _414  and  _415
REMARK  179  A    between atoms: _414  and  _417
REMARK  180  A    between atoms: _417  and  _418
REMARK  181  A    between atoms: _421  and  _423
REMARK  182  A    between atoms: _423  and  _424
REMARK  183  A    between atoms: _423  and  _426
REMARK  184  A    between atoms: _426  and  _427
REMARK  185  A    between atoms: _427  and  _428
REMARK  186  A    between atoms: _431  and  _433
REMARK  187  A    between atoms: _433  and  _434
REMARK  188  A    between atoms: _437  and  _439
REMARK  189  A    between atoms: _439  and  _440
REMARK  190  A    between atoms: _439  and  _442
REMARK  191  A    between atoms: _445  and  _447
REMARK  192  A    between atoms: _447  and  _448
REMARK  193  A    between atoms: _447  and  _450
REMARK  194  A    between atoms: _450  and  _451
REMARK  195  A    between atoms: _453  and  _455
REMARK  196  A    between atoms: _455  and  _456
REMARK  197  A    between atoms: _458  and  _460
REMARK  198  A    between atoms: _460  and  _461
REMARK  199  A    between atoms: _460  and  _463
REMARK  200  A    between atoms: _463  and  _464
REMARK  201  A    between atoms: _469  and  _471
REMARK  202  A    between atoms: _471  and  _472
REMARK  203  A    between atoms: _471  and  _474
REMARK  204  A    between atoms: _474  and  _475
REMARK  205  A    between atoms: _480  and  _481
REMARK  206  A    between atoms: _483  and  _485
REMARK  207  A    between atoms: _485  and  _486
REMARK  208  A    between atoms: _485  and  _488
REMARK  209  A    between atoms: _490  and  _492
REMARK  210  A    between atoms: _492  and  _493
REMARK  211  A    between atoms: _492  and  _495
REMARK  212  A    between atoms: _495  and  _496
REMARK  213  A    between atoms: _499  and  _501
REMARK  214  A    between atoms: _501  and  _502
REMARK  215  A    between atoms: _501  and  _504
REMARK  216  A    between atoms: _504  and  _505
REMARK  217  A    between atoms: _508  and  _510
REMARK  218  A    between atoms: _510  and  _511
REMARK  219  A    between atoms: _510  and  _513
REMARK  220  A    between atoms: _513  and  _514
REMARK  221  A    between atoms: _514  and  _515
REMARK  222  A    between atoms: _515  and  _516
REMARK  223  A    between atoms: _516  and  _517
REMARK  224  A    between atoms: _521  and  _523
REMARK  225  A    between atoms: _523  and  _524
REMARK  226  A    between atoms: _523  and  _526
REMARK  227  A    between atoms: _526  and  _527
REMARK  228  A    between atoms: _527  and  _528
REMARK  229  A    between atoms: _528  and  _529
REMARK  230  A    between atoms: _529  and  _530
REMARK  231  A    between atoms: _534  and  _536
REMARK  232  A    between atoms: _536  and  _537
REMARK  233  A    between atoms: _536  and  _539
REMARK  234  A    between atoms: _539  and  _540
REMARK  235  A    between atoms: _540  and  _541
REMARK  236  A    between atoms: _541  and  _542
REMARK  237  A    between atoms: _551  and  _553
REMARK  238  A    between atoms: _553  and  _554
REMARK  239  A    between atoms: _553  and  _556
REMARK  240  A    between atoms: _556  and  _557
REMARK  241  A    between atoms: _560  and  _562
REMARK  242  A    between atoms: _562  and  _563
REMARK  243  A    between atoms: _566  and  _568
REMARK  244  A    between atoms: _568  and  _569
REMARK  245  A    between atoms: _568  and  _571
REMARK  246  A    between atoms: _571  and  _572
REMARK  247  A    between atoms: _572  and  _573
REMARK                            x       y       z     vdW  Elec       q    Type
REMARK                         _______ _______ _______ _____ _____    ______ ____
ROOT
ATOM      1  O   HOH     1      -7.797  12.933  44.564  0.00  0.00    +0.000 OA
ENDROOT
TORSDOF 0
REMARK  Name = ../refined-set-2016/3cd0/3cd0_pocket.pdb
REMARK  247 active torsions:
REMARK  status: ('A' for Active; 'I' for Inactive)
REMARK    1  A    between atoms: _1  and  _3
REMARK    2  A    between atoms: _3  and  _4
REMARK    3  A    between atoms: _3  and  _6
REMARK    4  A    between atoms: _6  and  _7
REMARK    5  A    between atoms: _10  and  _12
REMARK    6  A    between atoms: _12  and  _13
REMARK    7  A    between atoms: _12  and  _15
REMARK    8  A    between atoms: _15  and  _16
REMARK    9  A    between atoms: _16  and  _17
REMARK   10  A    between atoms: _20  and  _22
REMARK   11  A    between atoms: _22  and  _23
REMARK   12  A    between atoms: _25  and  _27
REMARK   13  A    between atoms: _27  and  _28
REMARK   14  A    between atoms: _27  and  _30
REMARK   15  A    between atoms: _32  and  _34
REMARK   16  A    between atoms: _34  and  _35
REMARK   17  A    between atoms: _34  and  _37
REMARK   18  A    between atoms: _37  and  _38
REMARK   19  A    between atoms: _41  and  _43
REMARK   20  A    between atoms: _43  and  _44
REMARK   21  A    between atoms: _43  and  _46
REMARK   22  A    between atoms: _49  and  _51
REMARK   23  A    between atoms: _51  and  _52
REMARK   24  A    between atoms: _55  and  _57
REMARK   25  A    between atoms: _57  and  _58
REMARK   26  A    between atoms: _57  and  _60
REMARK   27  A    between atoms: _60  and  _61
REMARK   28  A    between atoms: _63  and  _65
REMARK   29  A    between atoms: _65  and  _66
REMARK   30  A    between atoms: _65  and  _68
REMARK   31  A    between atoms: _68  and  _69
REMARK   32  A    between atoms: _72  and  _74
REMARK   33  A    between atoms: _74  and  _75
REMARK   34  A    between atoms: _74  and  _77
REMARK   35  A    between atoms: _77  and  _78
REMARK   36  A    between atoms: _83  and  _85
REMARK   37  A    between atoms: _85  and  _86
REMARK   38  A    between atoms: _85  and  _88
REMARK   39  A    between atoms: _88  and  _89
REMARK   40  A    between atoms: _89  and  _90
REMARK   41  A    between atoms: _90  and  _91
REMARK   42  A    between atoms: _100  and  _102
REMARK   43  A    between atoms: _102  and  _103
REMARK   44  A    between atoms: _105  and  _107
REMARK   45  A    between atoms: _107  and  _108
REMARK   46  A    between atoms: _107  and  _110
REMARK   47  A    between atoms: _113  and  _115
REMARK   48  A    between atoms: _115  and  _116
REMARK   49  A    between atoms: _115  and  _118
REMARK   50  A    between atoms: _118  and  _119
REMARK   51  A    between atoms: _122  and  _124
REMARK   52  A    between atoms: _124  and  _125
REMARK   53  A    between atoms: _124  and  _127
REMARK   54  A    between atoms: _127  and  _128
REMARK   55  A    between atoms: _128  and  _129
REMARK   56  A    between atoms: _129  and  _130
REMARK   57  A    between atoms: _130  and  _131
REMARK   58  A    between atoms: _135  and  _137
REMARK   59  A    between atoms: _137  and  _138
REMARK   60  A    between atoms: _137  and  _140
REMARK   61  A    between atoms: _140  and  _141
REMARK   62  A    between atoms: _141  and  _142
REMARK   63  A    between atoms: _142  and  _143
REMARK   64  A    between atoms: _143  and  _144
REMARK   65  A    between atoms: _148  and  _150
REMARK   66  A    between atoms: _150  and  _151
REMARK   67  A    between atoms: _150  and  _153
REMARK   68  A    between atoms: _153  and  _154
REMARK   69  A    between atoms: _159  and  _161
REMARK   70  A    between atoms: _161  and  _162
REMARK   71  A    between atoms: _161  and  _164
REMARK   72  A    between atoms: _164  and  _165
REMARK   73  A    between atoms: _170  and  _172
REMARK   74  A    between atoms: _172  and  _173
REMARK   75  A    between atoms: _176  and  _178
REMARK   76  A    between atoms: _178  and  _179
REMARK   77  A    between atoms: _178  and  _181
REMARK   78  A    between atoms: _181  and  _182
REMARK   79  A    between atoms: _187  and  _189
REMARK   80  A    between atoms: _189  and  _190
REMARK   81  A    between atoms: _193  and  _195
REMARK   82  A    between atoms: _195  and  _196
REMARK   83  A    between atoms: _199  and  _201
REMARK   84  A    between atoms: _201  and  _202
REMARK   85  A    between atoms: _201  and  _204
REMARK   86  A    between atoms: _204  and  _205
REMARK   87  A    between atoms: _210  and  _212
REMARK   88  A    between atoms: _212  and  _213
REMARK   89  A    between atoms: _212  and  _215
REMARK   90  A    between atoms: _215  and  _216
REMARK   91  A    between atoms: _219  and  _221
REMARK   92  A    between atoms: _221  and  _222
REMARK   93  A    between atoms: _224  and  _226
REMARK   94  A    between atoms: _226  and  _227
REMARK   95  A    between atoms: _226  and  _229
REMARK   96  A    between atoms: _229  and  _230
REMARK   97  A    between atoms: _230  and  _231
REMARK   98  A    between atoms: _234  and  _236
REMARK   99  A    between atoms: _236  and  _237
REMARK  100  A    between atoms: _236  and  _239
REMARK  101  A    between atoms: _239  and  _240
REMARK  102  A    between atoms: _243  and  _245
REMARK  103  A    between atoms: _245  and  _246
REMARK  104  A    between atoms: _245  and  _248
REMARK  105  A    between atoms: _248  and  _249
REMARK  106  A    between atoms: _251  and  _253
REMARK  107  A    between atoms: _253  and  _254
REMARK  108  A    between atoms: _253  and  _256
REMARK  109  A    between atoms: _256  and  _257
REMARK  110  A    between atoms: _260  and  _262
REMARK  111  A    between atoms: _262  and  _263
REMARK  112  A    between atoms: _262  and  _265
REMARK  113  A    between atoms: _265  and  _266
REMARK  114  A    between atoms: _266  and  _267
REMARK  115  A    between atoms: _269  and  _271
REMARK  116  A    between atoms: _271  and  _272
REMARK  117  A    between atoms: _275  and  _277
REMARK  118  A    between atoms: _277  and  _278
REMARK  119  A    between atoms: _281  and  _283
REMARK  120  A    between atoms: _283  and  _284
REMARK  121  A    between atoms: _283  and  _286
REMARK  122  A    between atoms: _286  and  _287
REMARK  123  A    between atoms: _290  and  _292
REMARK  124  A    between atoms: _292  and  _293
REMARK  125  A    between atoms: _292  and  _295
REMARK  126  A    between atoms: _295  and  _296
REMARK  127  A    between atoms: _301  and  _303
REMARK  128  A    between atoms: _303  and  _304
REMARK  129  A    between atoms: _303  and  _306
REMARK  130  A    between atoms: _306  and  _307
REMARK  131  A    between atoms: _307  and  _308
REMARK  132  A    between atoms: _311  and  _313
REMARK  133  A    between atoms: _313  and  _314
REMARK  134  A    between atoms: _313  and  _316
REMARK  135  A    between atoms: _316  and  _317
REMARK  136  A    between atoms: _322  and  _324
REMARK  137  A    between atoms: _324  and  _325
REMARK  138  A    between atoms: _324  and  _327
REMARK  139  A    between atoms: _327  and  _328
REMARK  140  A    between atoms: _331  and  _333
REMARK  141  A    between atoms: _333  and  _334
REMARK  142  A    between atoms: _333  and  _336
REMARK  143  A    between atoms: _336  and  _337
REMARK  144  A    between atoms: _337  and  _338
REMARK  145  A    between atoms: _338  and  _339
REMARK  146  A    between atoms: _348  and  _350
REMARK  147  A    between atoms: _350  and  _351
REMARK  148  A    between atoms: _353  and  _355
REMARK  149  A    between atoms: _355  and  _356
REMARK  150  A    between atoms: _355  and  _358
REMARK  151  A    between atoms: _358  and  _359
REMARK  152  A    between atoms: _359  and  _360
REMARK  153  A    between atoms: _362  and  _364
REMARK  154  A    between atoms: _364  and  _365
REMARK  155  A    between atoms: _364  and  _367
REMARK  156  A    between atoms: _367  and  _368
REMARK  157  A    between atoms: _368  and  _369
REMARK  158  A    between atoms: _371  and  _373
REMARK  159  A    between atoms: _373  and  _374
REMARK  160  A    between atoms: _373  and  _376
REMARK  161  A    between atoms: _376  and  _377
REMARK  162  A    between atoms: _382  and  _384
REMARK  163  A    between atoms: _384  and  _385
REMARK  164  A    between atoms: _384  and  _387
REMARK  165  A    between atoms: _387  and  _388
REMARK  166  A    between atoms: _391  and  _393
REMARK  167  A    between atoms: _393  and  _394
REMARK  168  A    between atoms: _393  and  _396
REMARK  169  A    between atoms: _396  and  _397
REMARK  170  A    between atoms: _399  and  _401
REMARK  171  A    between atoms: _401  and  _402
REMARK  172  A    between atoms: _401  and  _404
REMARK  173  A    between atoms: _404  and  _405
REMARK  174  A    between atoms: _405  and  _406
REMARK  175  A    between atoms: _406  and  _407
REMARK  176  A    between atoms: _407  and  _408
REMARK  177  A    between atoms: _412  and  _414
REMARK  178  A    between atoms: _414  and  _415
REMARK  179  A    between atoms: _414  and  _417
REMARK  180  A    between atoms: _417  and  _418
REMARK  181  A    between atoms: _421  and  _423
REMARK  182  A    between atoms: _423  and  _424
REMARK  183  A    between atoms: _423  and  _426
REMARK  184  A    between atoms: _426  and  _427
REMARK  185  A    between atoms: _427  and  _428
REMARK  186  A    between atoms: _431  and  _433
REMARK  187  A    between atoms: _433  and  _434
REMARK  188  A    between atoms: _437  and  _439
REMARK  189  A    between atoms: _439  and  _440
REMARK  190  A    between atoms: _439  and  _442
REMARK  191  A    between atoms: _445  and  _447
REMARK  192  A    between atoms: _447  and  _448
REMARK  193  A    between atoms: _447  and  _450
REMARK  194  A    between atoms: _450  and  _451
REMARK  195  A    between atoms: _453  and  _455
REMARK  196  A    between atoms: _455  and  _456
REMARK  197  A    between atoms: _458  and  _460
REMARK  198  A    between atoms: _460  and  _461
REMARK  199  A    between atoms: _460  and  _463
REMARK  200  A    between atoms: _463  and  _464
REMARK  201  A    between atoms: _469  and  _471
REMARK  202  A    between atoms: _471  and  _472
REMARK  203  A    between atoms: _471  and  _474
REMARK  204  A    between atoms: _474  and  _475
REMARK  205  A    between atoms: _480  and  _481
REMARK  206  A    between atoms: _483  and  _485
REMARK  207  A    between atoms: _485  and  _486
REMARK  208  A    between atoms: _485  and  _488
REMARK  209  A    between atoms: _490  and  _492
REMARK  210  A    between atoms: _492  and  _493
REMARK  211  A    between atoms: _492  and  _495
REMARK  212  A    between atoms: _495  and  _496
REMARK  213  A    between atoms: _499  and  _501
REMARK  214  A    between atoms: _501  and  _502
REMARK  215  A    between atoms: _501  and  _504
REMARK  216  A    between atoms: _504  and  _505
REMARK  217  A    between atoms: _508  and  _510
REMARK  218  A    between atoms: _510  and  _511
REMARK  219  A    between atoms: _510  and  _513
REMARK  220  A    between atoms: _513  and  _514
REMARK  221  A    between atoms: _514  and  _515
REMARK  222  A    between atoms: _515  and  _516
REMARK  223  A    between atoms: _516  and  _517
REMARK  224  A    between atoms: _521  and  _523
REMARK  225  A    between atoms: _523  and  _524
REMARK  226  A    between atoms: _523  and  _526
REMARK  227  A    between atoms: _526  and  _527
REMARK  228  A    between atoms: _527  and  _528
REMARK  229  A    between atoms: _528  and  _529
REMARK  230  A    between atoms: _529  and  _530
REMARK  231  A    between atoms: _534  and  _536
REMARK  232  A    between atoms: _536  and  _537
REMARK  233  A    between atoms: _536  and  _539
REMARK  234  A    between atoms: _539  and  _540
REMARK  235  A    between atoms: _540  and  _541
REMARK  236  A    between atoms: _541  and  _542
REMARK  237  A    between atoms: _551  and  _553
REMARK  238  A    between atoms: _553  and  _554
REMARK  239  A    between atoms: _553  and  _556
REMARK  240  A    between atoms: _556  and  _557
REMARK  241  A    between atoms: _560  and  _562
REMARK  242  A    between atoms: _562  and  _563
REMARK  243  A    between atoms: _566  and  _568
REMARK  244  A    between atoms: _568  and  _569
REMARK  245  A    between atoms: _568  and  _571
REMARK  246  A    between atoms: _571  and  _572
REMARK  247  A    between atoms: _572  and  _573
REMARK                            x       y       z     vdW  Elec       q    Type
REMARK                         _______ _______ _______ _____ _____    ______ ____
ROOT
ATOM      1  O   HOH     1     -15.758   6.934  50.256  0.00  0.00    +0.000 OA
ENDROOT
TORSDOF 0
REMARK  Name = ../refined-set-2016/3cd0/3cd0_pocket.pdb
REMARK  247 active torsions:
REMARK  status: ('A' for Active; 'I' for Inactive)
REMARK    1  A    between atoms: _1  and  _3
REMARK    2  A    between atoms: _3  and  _4
REMARK    3  A    between atoms: _3  and  _6
REMARK    4  A    between atoms: _6  and  _7
REMARK    5  A    between atoms: _10  and  _12
REMARK    6  A    between atoms: _12  and  _13
REMARK    7  A    between atoms: _12  and  _15
REMARK    8  A    between atoms: _15  and  _16
REMARK    9  A    between atoms: _16  and  _17
REMARK   10  A    between atoms: _20  and  _22
REMARK   11  A    between atoms: _22  and  _23
REMARK   12  A    between atoms: _25  and  _27
REMARK   13  A    between atoms: _27  and  _28
REMARK   14  A    between atoms: _27  and  _30
REMARK   15  A    between atoms: _32  and  _34
REMARK   16  A    between atoms: _34  and  _35
REMARK   17  A    between atoms: _34  and  _37
REMARK   18  A    between atoms: _37  and  _38
REMARK   19  A    between atoms: _41  and  _43
REMARK   20  A    between atoms: _43  and  _44
REMARK   21  A    between atoms: _43  and  _46
REMARK   22  A    between atoms: _49  and  _51
REMARK   23  A    between atoms: _51  and  _52
REMARK   24  A    between atoms: _55  and  _57
REMARK   25  A    between atoms: _57  and  _58
REMARK   26  A    between atoms: _57  and  _60
REMARK   27  A    between atoms: _60  and  _61
REMARK   28  A    between atoms: _63  and  _65
REMARK   29  A    between atoms: _65  and  _66
REMARK   30  A    between atoms: _65  and  _68
REMARK   31  A    between atoms: _68  and  _69
REMARK   32  A    between atoms: _72  and  _74
REMARK   33  A    between atoms: _74  and  _75
REMARK   34  A    between atoms: _74  and  _77
REMARK   35  A    between atoms: _77  and  _78
REMARK   36  A    between atoms: _83  and  _85
REMARK   37  A    between atoms: _85  and  _86
REMARK   38  A    between atoms: _85  and  _88
REMARK   39  A    between atoms: _88  and  _89
REMARK   40  A    between atoms: _89  and  _90
REMARK   41  A    between atoms: _90  and  _91
REMARK   42  A    between atoms: _100  and  _102
REMARK   43  A    between atoms: _102  and  _103
REMARK   44  A    between atoms: _105  and  _107
REMARK   45  A    between atoms: _107  and  _108
REMARK   46  A    between atoms: _107  and  _110
REMARK   47  A    between atoms: _113  and  _115
REMARK   48  A    between atoms: _115  and  _116
REMARK   49  A    between atoms: _115  and  _118
REMARK   50  A    between atoms: _118  and  _119
REMARK   51  A    between atoms: _122  and  _124
REMARK   52  A    between atoms: _124  and  _125
REMARK   53  A    between atoms: _124  and  _127
REMARK   54  A    between atoms: _127  and  _128
REMARK   55  A    between atoms: _128  and  _129
REMARK   56  A    between atoms: _129  and  _130
REMARK   57  A    between atoms: _130  and  _131
REMARK   58  A    between atoms: _135  and  _137
REMARK   59  A    between atoms: _137  and  _138
REMARK   60  A    between atoms: _137  and  _140
REMARK   61  A    between atoms: _140  and  _141
REMARK   62  A    between atoms: _141  and  _142
REMARK   63  A    between atoms: _142  and  _143
REMARK   64  A    between atoms: _143  and  _144
REMARK   65  A    between atoms: _148  and  _150
REMARK   66  A    between atoms: _150  and  _151
REMARK   67  A    between atoms: _150  and  _153
REMARK   68  A    between atoms: _153  and  _154
REMARK   69  A    between atoms: _159  and  _161
REMARK   70  A    between atoms: _161  and  _162
REMARK   71  A    between atoms: _161  and  _164
REMARK   72  A    between atoms: _164  and  _165
REMARK   73  A    between atoms: _170  and  _172
REMARK   74  A    between atoms: _172  and  _173
REMARK   75  A    between atoms: _176  and  _178
REMARK   76  A    between atoms: _178  and  _179
REMARK   77  A    between atoms: _178  and  _181
REMARK   78  A    between atoms: _181  and  _182
REMARK   79  A    between atoms: _187  and  _189
REMARK   80  A    between atoms: _189  and  _190
REMARK   81  A    between atoms: _193  and  _195
REMARK   82  A    between atoms: _195  and  _196
REMARK   83  A    between atoms: _199  and  _201
REMARK   84  A    between atoms: _201  and  _202
REMARK   85  A    between atoms: _201  and  _204
REMARK   86  A    between atoms: _204  and  _205
REMARK   87  A    between atoms: _210  and  _212
REMARK   88  A    between atoms: _212  and  _213
REMARK   89  A    between atoms: _212  and  _215
REMARK   90  A    between atoms: _215  and  _216
REMARK   91  A    between atoms: _219  and  _221
REMARK   92  A    between atoms: _221  and  _222
REMARK   93  A    between atoms: _224  and  _226
REMARK   94  A    between atoms: _226  and  _227
REMARK   95  A    between atoms: _226  and  _229
REMARK   96  A    between atoms: _229  and  _230
REMARK   97  A    between atoms: _230  and  _231
REMARK   98  A    between atoms: _234  and  _236
REMARK   99  A    between atoms: _236  and  _237
REMARK  100  A    between atoms: _236  and  _239
REMARK  101  A    between atoms: _239  and  _240
REMARK  102  A    between atoms: _243  and  _245
REMARK  103  A    between atoms: _245  and  _246
REMARK  104  A    between atoms: _245  and  _248
REMARK  105  A    between atoms: _248  and  _249
REMARK  106  A    between atoms: _251  and  _253
REMARK  107  A    between atoms: _253  and  _254
REMARK  108  A    between atoms: _253  and  _256
REMARK  109  A    between atoms: _256  and  _257
REMARK  110  A    between atoms: _260  and  _262
REMARK  111  A    between atoms: _262  and  _263
REMARK  112  A    between atoms: _262  and  _265
REMARK  113  A    between atoms: _265  and  _266
REMARK  114  A    between atoms: _266  and  _267
REMARK  115  A    between atoms: _269  and  _271
REMARK  116  A    between atoms: _271  and  _272
REMARK  117  A    between atoms: _275  and  _277
REMARK  118  A    between atoms: _277  and  _278
REMARK  119  A    between atoms: _281  and  _283
REMARK  120  A    between atoms: _283  and  _284
REMARK  121  A    between atoms: _283  and  _286
REMARK  122  A    between atoms: _286  and  _287
REMARK  123  A    between atoms: _290  and  _292
REMARK  124  A    between atoms: _292  and  _293
REMARK  125  A    between atoms: _292  and  _295
REMARK  126  A    between atoms: _295  and  _296
REMARK  127  A    between atoms: _301  and  _303
REMARK  128  A    between atoms: _303  and  _304
REMARK  129  A    between atoms: _303  and  _306
REMARK  130  A    between atoms: _306  and  _307
REMARK  131  A    between atoms: _307  and  _308
REMARK  132  A    between atoms: _311  and  _313
REMARK  133  A    between atoms: _313  and  _314
REMARK  134  A    between atoms: _313  and  _316
REMARK  135  A    between atoms: _316  and  _317
REMARK  136  A    between atoms: _322  and  _324
REMARK  137  A    between atoms: _324  and  _325
REMARK  138  A    between atoms: _324  and  _327
REMARK  139  A    between atoms: _327  and  _328
REMARK  140  A    between atoms: _331  and  _333
REMARK  141  A    between atoms: _333  and  _334
REMARK  142  A    between atoms: _333  and  _336
REMARK  143  A    between atoms: _336  and  _337
REMARK  144  A    between atoms: _337  and  _338
REMARK  145  A    between atoms: _338  and  _339
REMARK  146  A    between atoms: _348  and  _350
REMARK  147  A    between atoms: _350  and  _351
REMARK  148  A    between atoms: _353  and  _355
REMARK  149  A    between atoms: _355  and  _356
REMARK  150  A    between atoms: _355  and  _358
REMARK  151  A    between atoms: _358  and  _359
REMARK  152  A    between atoms: _359  and  _360
REMARK  153  A    between atoms: _362  and  _364
REMARK  154  A    between atoms: _364  and  _365
REMARK  155  A    between atoms: _364  and  _367
REMARK  156  A    between atoms: _367  and  _368
REMARK  157  A    between atoms: _368  and  _369
REMARK  158  A    between atoms: _371  and  _373
REMARK  159  A    between atoms: _373  and  _374
REMARK  160  A    between atoms: _373  and  _376
REMARK  161  A    between atoms: _376  and  _377
REMARK  162  A    between atoms: _382  and  _384
REMARK  163  A    between atoms: _384  and  _385
REMARK  164  A    between atoms: _384  and  _387
REMARK  165  A    between atoms: _387  and  _388
REMARK  166  A    between atoms: _391  and  _393
REMARK  167  A    between atoms: _393  and  _394
REMARK  168  A    between atoms: _393  and  _396
REMARK  169  A    between atoms: _396  and  _397
REMARK  170  A    between atoms: _399  and  _401
REMARK  171  A    between atoms: _401  and  _402
REMARK  172  A    between atoms: _401  and  _404
REMARK  173  A    between atoms: _404  and  _405
REMARK  174  A    between atoms: _405  and  _406
REMARK  175  A    between atoms: _406  and  _407
REMARK  176  A    between atoms: _407  and  _408
REMARK  177  A    between atoms: _412  and  _414
REMARK  178  A    between atoms: _414  and  _415
REMARK  179  A    between atoms: _414  and  _417
REMARK  180  A    between atoms: _417  and  _418
REMARK  181  A    between atoms: _421  and  _423
REMARK  182  A    between atoms: _423  and  _424
REMARK  183  A    between atoms: _423  and  _426
REMARK  184  A    between atoms: _426  and  _427
REMARK  185  A    between atoms: _427  and  _428
REMARK  186  A    between atoms: _431  and  _433
REMARK  187  A    between atoms: _433  and  _434
REMARK  188  A    between atoms: _437  and  _439
REMARK  189  A    between atoms: _439  and  _440
REMARK  190  A    between atoms: _439  and  _442
REMARK  191  A    between atoms: _445  and  _447
REMARK  192  A    between atoms: _447  and  _448
REMARK  193  A    between atoms: _447  and  _450
REMARK  194  A    between atoms: _450  and  _451
REMARK  195  A    between atoms: _453  and  _455
REMARK  196  A    between atoms: _455  and  _456
REMARK  197  A    between atoms: _458  and  _460
REMARK  198  A    between atoms: _460  and  _461
REMARK  199  A    between atoms: _460  and  _463
REMARK  200  A    between atoms: _463  and  _464
REMARK  201  A    between atoms: _469  and  _471
REMARK  202  A    between atoms: _471  and  _472
REMARK  203  A    between atoms: _471  and  _474
REMARK  204  A    between atoms: _474  and  _475
REMARK  205  A    between atoms: _480  and  _481
REMARK  206  A    between atoms: _483  and  _485
REMARK  207  A    between atoms: _485  and  _486
REMARK  208  A    between atoms: _485  and  _488
REMARK  209  A    between atoms: _490  and  _492
REMARK  210  A    between atoms: _492  and  _493
REMARK  211  A    between atoms: _492  and  _495
REMARK  212  A    between atoms: _495  and  _496
REMARK  213  A    between atoms: _499  and  _501
REMARK  214  A    between atoms: _501  and  _502
REMARK  215  A    between atoms: _501  and  _504
REMARK  216  A    between atoms: _504  and  _505
REMARK  217  A    between atoms: _508  and  _510
REMARK  218  A    between atoms: _510  and  _511
REMARK  219  A    between atoms: _510  and  _513
REMARK  220  A    between atoms: _513  and  _514
REMARK  221  A    between atoms: _514  and  _515
REMARK  222  A    between atoms: _515  and  _516
REMARK  223  A    between atoms: _516  and  _517
REMARK  224  A    between atoms: _521  and  _523
REMARK  225  A    between atoms: _523  and  _524
REMARK  226  A    between atoms: _523  and  _526
REMARK  227  A    between atoms: _526  and  _527
REMARK  228  A    between atoms: _527  and  _528
REMARK  229  A    between atoms: _528  and  _529
REMARK  230  A    between atoms: _529  and  _530
REMARK  231  A    between atoms: _534  and  _536
REMARK  232  A    between atoms: _536  and  _537
REMARK  233  A    between atoms: _536  and  _539
REMARK  234  A    between atoms: _539  and  _540
REMARK  235  A    between atoms: _540  and  _541
REMARK  236  A    between atoms: _541  and  _542
REMARK  237  A    between atoms: _551  and  _553
REMARK  238  A    between atoms: _553  and  _554
REMARK  239  A    between atoms: _553  and  _556
REMARK  240  A    between atoms: _556  and  _557
REMARK  241  A    between atoms: _560  and  _562
REMARK  242  A    between atoms: _562  and  _563
REMARK  243  A    between atoms: _566  and  _568
REMARK  244  A    between atoms: _568  and  _569
REMARK  245  A    between atoms: _568  and  _571
REMARK  246  A    between atoms: _571  and  _572
REMARK  247  A    between atoms: _572  and  _573
REMARK                            x       y       z     vdW  Elec       q    Type
REMARK                         _______ _______ _______ _____ _____    ______ ____
ROOT
ATOM      1  O   HOH     1      -8.734   7.503  41.830  0.00  0.00    +0.000 OA
ENDROOT
TORSDOF 0
REMARK  Name = ../refined-set-2016/3cd0/3cd0_pocket.pdb
REMARK  247 active torsions:
REMARK  status: ('A' for Active; 'I' for Inactive)
REMARK    1  A    between atoms: _1  and  _3
REMARK    2  A    between atoms: _3  and  _4
REMARK    3  A    between atoms: _3  and  _6
REMARK    4  A    between atoms: _6  and  _7
REMARK    5  A    between atoms: _10  and  _12
REMARK    6  A    between atoms: _12  and  _13
REMARK    7  A    between atoms: _12  and  _15
REMARK    8  A    between atoms: _15  and  _16
REMARK    9  A    between atoms: _16  and  _17
REMARK   10  A    between atoms: _20  and  _22
REMARK   11  A    between atoms: _22  and  _23
REMARK   12  A    between atoms: _25  and  _27
REMARK   13  A    between atoms: _27  and  _28
REMARK   14  A    between atoms: _27  and  _30
REMARK   15  A    between atoms: _32  and  _34
REMARK   16  A    between atoms: _34  and  _35
REMARK   17  A    between atoms: _34  and  _37
REMARK   18  A    between atoms: _37  and  _38
REMARK   19  A    between atoms: _41  and  _43
REMARK   20  A    between atoms: _43  and  _44
REMARK   21  A    between atoms: _43  and  _46
REMARK   22  A    between atoms: _49  and  _51
REMARK   23  A    between atoms: _51  and  _52
REMARK   24  A    between atoms: _55  and  _57
REMARK   25  A    between atoms: _57  and  _58
REMARK   26  A    between atoms: _57  and  _60
REMARK   27  A    between atoms: _60  and  _61
REMARK   28  A    between atoms: _63  and  _65
REMARK   29  A    between atoms: _65  and  _66
REMARK   30  A    between atoms: _65  and  _68
REMARK   31  A    between atoms: _68  and  _69
REMARK   32  A    between atoms: _72  and  _74
REMARK   33  A    between atoms: _74  and  _75
REMARK   34  A    between atoms: _74  and  _77
REMARK   35  A    between atoms: _77  and  _78
REMARK   36  A    between atoms: _83  and  _85
REMARK   37  A    between atoms: _85  and  _86
REMARK   38  A    between atoms: _85  and  _88
REMARK   39  A    between atoms: _88  and  _89
REMARK   40  A    between atoms: _89  and  _90
REMARK   41  A    between atoms: _90  and  _91
REMARK   42  A    between atoms: _100  and  _102
REMARK   43  A    between atoms: _102  and  _103
REMARK   44  A    between atoms: _105  and  _107
REMARK   45  A    between atoms: _107  and  _108
REMARK   46  A    between atoms: _107  and  _110
REMARK   47  A    between atoms: _113  and  _115
REMARK   48  A    between atoms: _115  and  _116
REMARK   49  A    between atoms: _115  and  _118
REMARK   50  A    between atoms: _118  and  _119
REMARK   51  A    between atoms: _122  and  _124
REMARK   52  A    between atoms: _124  and  _125
REMARK   53  A    between atoms: _124  and  _127
REMARK   54  A    between atoms: _127  and  _128
REMARK   55  A    between atoms: _128  and  _129
REMARK   56  A    between atoms: _129  and  _130
REMARK   57  A    between atoms: _130  and  _131
REMARK   58  A    between atoms: _135  and  _137
REMARK   59  A    between atoms: _137  and  _138
REMARK   60  A    between atoms: _137  and  _140
REMARK   61  A    between atoms: _140  and  _141
REMARK   62  A    between atoms: _141  and  _142
REMARK   63  A    between atoms: _142  and  _143
REMARK   64  A    between atoms: _143  and  _144
REMARK   65  A    between atoms: _148  and  _150
REMARK   66  A    between atoms: _150  and  _151
REMARK   67  A    between atoms: _150  and  _153
REMARK   68  A    between atoms: _153  and  _154
REMARK   69  A    between atoms: _159  and  _161
REMARK   70  A    between atoms: _161  and  _162
REMARK   71  A    between atoms: _161  and  _164
REMARK   72  A    between atoms: _164  and  _165
REMARK   73  A    between atoms: _170  and  _172
REMARK   74  A    between atoms: _172  and  _173
REMARK   75  A    between atoms: _176  and  _178
REMARK   76  A    between atoms: _178  and  _179
REMARK   77  A    between atoms: _178  and  _181
REMARK   78  A    between atoms: _181  and  _182
REMARK   79  A    between atoms: _187  and  _189
REMARK   80  A    between atoms: _189  and  _190
REMARK   81  A    between atoms: _193  and  _195
REMARK   82  A    between atoms: _195  and  _196
REMARK   83  A    between atoms: _199  and  _201
REMARK   84  A    between atoms: _201  and  _202
REMARK   85  A    between atoms: _201  and  _204
REMARK   86  A    between atoms: _204  and  _205
REMARK   87  A    between atoms: _210  and  _212
REMARK   88  A    between atoms: _212  and  _213
REMARK   89  A    between atoms: _212  and  _215
REMARK   90  A    between atoms: _215  and  _216
REMARK   91  A    between atoms: _219  and  _221
REMARK   92  A    between atoms: _221  and  _222
REMARK   93  A    between atoms: _224  and  _226
REMARK   94  A    between atoms: _226  and  _227
REMARK   95  A    between atoms: _226  and  _229
REMARK   96  A    between atoms: _229  and  _230
REMARK   97  A    between atoms: _230  and  _231
REMARK   98  A    between atoms: _234  and  _236
REMARK   99  A    between atoms: _236  and  _237
REMARK  100  A    between atoms: _236  and  _239
REMARK  101  A    between atoms: _239  and  _240
REMARK  102  A    between atoms: _243  and  _245
REMARK  103  A    between atoms: _245  and  _246
REMARK  104  A    between atoms: _245  and  _248
REMARK  105  A    between atoms: _248  and  _249
REMARK  106  A    between atoms: _251  and  _253
REMARK  107  A    between atoms: _253  and  _254
REMARK  108  A    between atoms: _253  and  _256
REMARK  109  A    between atoms: _256  and  _257
REMARK  110  A    between atoms: _260  and  _262
REMARK  111  A    between atoms: _262  and  _263
REMARK  112  A    between atoms: _262  and  _265
REMARK  113  A    between atoms: _265  and  _266
REMARK  114  A    between atoms: _266  and  _267
REMARK  115  A    between atoms: _269  and  _271
REMARK  116  A    between atoms: _271  and  _272
REMARK  117  A    between atoms: _275  and  _277
REMARK  118  A    between atoms: _277  and  _278
REMARK  119  A    between atoms: _281  and  _283
REMARK  120  A    between atoms: _283  and  _284
REMARK  121  A    between atoms: _283  and  _286
REMARK  122  A    between atoms: _286  and  _287
REMARK  123  A    between atoms: _290  and  _292
REMARK  124  A    between atoms: _292  and  _293
REMARK  125  A    between atoms: _292  and  _295
REMARK  126  A    between atoms: _295  and  _296
REMARK  127  A    between atoms: _301  and  _303
REMARK  128  A    between atoms: _303  and  _304
REMARK  129  A    between atoms: _303  and  _306
REMARK  130  A    between atoms: _306  and  _307
REMARK  131  A    between atoms: _307  and  _308
REMARK  132  A    between atoms: _311  and  _313
REMARK  133  A    between atoms: _313  and  _314
REMARK  134  A    between atoms: _313  and  _316
REMARK  135  A    between atoms: _316  and  _317
REMARK  136  A    between atoms: _322  and  _324
REMARK  137  A    between atoms: _324  and  _325
REMARK  138  A    between atoms: _324  and  _327
REMARK  139  A    between atoms: _327  and  _328
REMARK  140  A    between atoms: _331  and  _333
REMARK  141  A    between atoms: _333  and  _334
REMARK  142  A    between atoms: _333  and  _336
REMARK  143  A    between atoms: _336  and  _337
REMARK  144  A    between atoms: _337  and  _338
REMARK  145  A    between atoms: _338  and  _339
REMARK  146  A    between atoms: _348  and  _350
REMARK  147  A    between atoms: _350  and  _351
REMARK  148  A    between atoms: _353  and  _355
REMARK  149  A    between atoms: _355  and  _356
REMARK  150  A    between atoms: _355  and  _358
REMARK  151  A    between atoms: _358  and  _359
REMARK  152  A    between atoms: _359  and  _360
REMARK  153  A    between atoms: _362  and  _364
REMARK  154  A    between atoms: _364  and  _365
REMARK  155  A    between atoms: _364  and  _367
REMARK  156  A    between atoms: _367  and  _368
REMARK  157  A    between atoms: _368  and  _369
REMARK  158  A    between atoms: _371  and  _373
REMARK  159  A    between atoms: _373  and  _374
REMARK  160  A    between atoms: _373  and  _376
REMARK  161  A    between atoms: _376  and  _377
REMARK  162  A    between atoms: _382  and  _384
REMARK  163  A    between atoms: _384  and  _385
REMARK  164  A    between atoms: _384  and  _387
REMARK  165  A    between atoms: _387  and  _388
REMARK  166  A    between atoms: _391  and  _393
REMARK  167  A    between atoms: _393  and  _394
REMARK  168  A    between atoms: _393  and  _396
REMARK  169  A    between atoms: _396  and  _397
REMARK  170  A    between atoms: _399  and  _401
REMARK  171  A    between atoms: _401  and  _402
REMARK  172  A    between atoms: _401  and  _404
REMARK  173  A    between atoms: _404  and  _405
REMARK  174  A    between atoms: _405  and  _406
REMARK  175  A    between atoms: _406  and  _407
REMARK  176  A    between atoms: _407  and  _408
REMARK  177  A    between atoms: _412  and  _414
REMARK  178  A    between atoms: _414  and  _415
REMARK  179  A    between atoms: _414  and  _417
REMARK  180  A    between atoms: _417  and  _418
REMARK  181  A    between atoms: _421  and  _423
REMARK  182  A    between atoms: _423  and  _424
REMARK  183  A    between atoms: _423  and  _426
REMARK  184  A    between atoms: _426  and  _427
REMARK  185  A    between atoms: _427  and  _428
REMARK  186  A    between atoms: _431  and  _433
REMARK  187  A    between atoms: _433  and  _434
REMARK  188  A    between atoms: _437  and  _439
REMARK  189  A    between atoms: _439  and  _440
REMARK  190  A    between atoms: _439  and  _442
REMARK  191  A    between atoms: _445  and  _447
REMARK  192  A    between atoms: _447  and  _448
REMARK  193  A    between atoms: _447  and  _450
REMARK  194  A    between atoms: _450  and  _451
REMARK  195  A    between atoms: _453  and  _455
REMARK  196  A    between atoms: _455  and  _456
REMARK  197  A    between atoms: _458  and  _460
REMARK  198  A    between atoms: _460  and  _461
REMARK  199  A    between atoms: _460  and  _463
REMARK  200  A    between atoms: _463  and  _464
REMARK  201  A    between atoms: _469  and  _471
REMARK  202  A    between atoms: _471  and  _472
REMARK  203  A    between atoms: _471  and  _474
REMARK  204  A    between atoms: _474  and  _475
REMARK  205  A    between atoms: _480  and  _481
REMARK  206  A    between atoms: _483  and  _485
REMARK  207  A    between atoms: _485  and  _486
REMARK  208  A    between atoms: _485  and  _488
REMARK  209  A    between atoms: _490  and  _492
REMARK  210  A    between atoms: _492  and  _493
REMARK  211  A    between atoms: _492  and  _495
REMARK  212  A    between atoms: _495  and  _496
REMARK  213  A    between atoms: _499  and  _501
REMARK  214  A    between atoms: _501  and  _502
REMARK  215  A    between atoms: _501  and  _504
REMARK  216  A    between atoms: _504  and  _505
REMARK  217  A    between atoms: _508  and  _510
REMARK  218  A    between atoms: _510  and  _511
REMARK  219  A    between atoms: _510  and  _513
REMARK  220  A    between atoms: _513  and  _514
REMARK  221  A    between atoms: _514  and  _515
REMARK  222  A    between atoms: _515  and  _516
REMARK  223  A    between atoms: _516  and  _517
REMARK  224  A    between atoms: _521  and  _523
REMARK  225  A    between atoms: _523  and  _524
REMARK  226  A    between atoms: _523  and  _526
REMARK  227  A    between atoms: _526  and  _527
REMARK  228  A    between atoms: _527  and  _528
REMARK  229  A    between atoms: _528  and  _529
REMARK  230  A    between atoms: _529  and  _530
REMARK  231  A    between atoms: _534  and  _536
REMARK  232  A    between atoms: _536  and  _537
REMARK  233  A    between atoms: _536  and  _539
REMARK  234  A    between atoms: _539  and  _540
REMARK  235  A    between atoms: _540  and  _541
REMARK  236  A    between atoms: _541  and  _542
REMARK  237  A    between atoms: _551  and  _553
REMARK  238  A    between atoms: _553  and  _554
REMARK  239  A    between atoms: _553  and  _556
REMARK  240  A    between atoms: _556  and  _557
REMARK  241  A    between atoms: _560  and  _562
REMARK  242  A    between atoms: _562  and  _563
REMARK  243  A    between atoms: _566  and  _568
REMARK  244  A    between atoms: _568  and  _569
REMARK  245  A    between atoms: _568  and  _571
REMARK  246  A    between atoms: _571  and  _572
REMARK  247  A    between atoms: _572  and  _573
REMARK                            x       y       z     vdW  Elec       q    Type
REMARK                         _______ _______ _______ _____ _____    ______ ____
ROOT
ATOM      1  O   HOH     1     -16.972  10.761  48.194  0.00  0.00    +0.000 OA
ENDROOT
TORSDOF 0
