REMARK  Name = ../refined-set-2016/1zhy/1zhy_pocket.pdb
REMARK  247 active torsions:
REMARK  status: ('A' for Active; 'I' for Inactive)
REMARK    1  A    between atoms: _1  and  _3
REMARK    2  A    between atoms: _3  and  _4
REMARK    3  A    between atoms: _3  and  _6
REMARK    4  A    between atoms: _6  and  _7
REMARK    5  A    between atoms: _17  and  _19
REMARK    6  A    between atoms: _19  and  _20
REMARK    7  A    between atoms: _19  and  _22
REMARK    8  A    between atoms: _22  and  _23
REMARK    9  A    between atoms: _29  and  _31
REMARK   10  A    between atoms: _31  and  _32
REMARK   11  A    between atoms: _31  and  _34
REMARK   12  A    between atoms: _34  and  _35
REMARK   13  A    between atoms: _38  and  _40
REMARK   14  A    between atoms: _40  and  _41
REMARK   15  A    between atoms: _40  and  _43
REMARK   16  A    between atoms: _43  and  _44
REMARK   17  A    between atoms: _47  and  _49
REMARK   18  A    between atoms: _49  and  _50
REMARK   19  A    between atoms: _49  and  _52
REMARK   20  A    between atoms: _52  and  _53
REMARK   21  A    between atoms: _55  and  _57
REMARK   22  A    between atoms: _57  and  _58
REMARK   23  A    between atoms: _57  and  _60
REMARK   24  A    between atoms: _60  and  _61
REMARK   25  A    between atoms: _64  and  _66
REMARK   26  A    between atoms: _66  and  _67
REMARK   27  A    between atoms: _71  and  _72
REMARK   28  A    between atoms: _77  and  _79
REMARK   29  A    between atoms: _79  and  _80
REMARK   30  A    between atoms: _79  and  _82
REMARK   31  A    between atoms: _82  and  _83
REMARK   32  A    between atoms: _86  and  _88
REMARK   33  A    between atoms: _88  and  _89
REMARK   34  A    between atoms: _88  and  _91
REMARK   35  A    between atoms: _91  and  _92
REMARK   36  A    between atoms: _95  and  _97
REMARK   37  A    between atoms: _97  and  _98
REMARK   38  A    between atoms: _97  and  _100
REMARK   39  A    between atoms: _100  and  _101
REMARK   40  A    between atoms: _103  and  _105
REMARK   41  A    between atoms: _105  and  _106
REMARK   42  A    between atoms: _105  and  _108
REMARK   43  A    between atoms: _108  and  _109
REMARK   44  A    between atoms: _112  and  _114
REMARK   45  A    between atoms: _114  and  _115
REMARK   46  A    between atoms: _114  and  _117
REMARK   47  A    between atoms: _117  and  _118
REMARK   48  A    between atoms: _118  and  _119
REMARK   49  A    between atoms: _122  and  _124
REMARK   50  A    between atoms: _124  and  _125
REMARK   51  A    between atoms: _124  and  _127
REMARK   52  A    between atoms: _127  and  _128
REMARK   53  A    between atoms: _134  and  _136
REMARK   54  A    between atoms: _136  and  _137
REMARK   55  A    between atoms: _136  and  _139
REMARK   56  A    between atoms: _139  and  _140
REMARK   57  A    between atoms: _142  and  _144
REMARK   58  A    between atoms: _144  and  _145
REMARK   59  A    between atoms: _144  and  _147
REMARK   60  A    between atoms: _147  and  _148
REMARK   61  A    between atoms: _148  and  _149
REMARK   62  A    between atoms: _154  and  _156
REMARK   63  A    between atoms: _156  and  _157
REMARK   64  A    between atoms: _156  and  _159
REMARK   65  A    between atoms: _159  and  _160
REMARK   66  A    between atoms: _165  and  _166
REMARK   67  A    between atoms: _168  and  _170
REMARK   68  A    between atoms: _170  and  _171
REMARK   69  A    between atoms: _170  and  _173
REMARK   70  A    between atoms: _173  and  _174
REMARK   71  A    between atoms: _184  and  _186
REMARK   72  A    between atoms: _186  and  _187
REMARK   73  A    between atoms: _186  and  _189
REMARK   74  A    between atoms: _189  and  _190
REMARK   75  A    between atoms: _193  and  _195
REMARK   76  A    between atoms: _195  and  _196
REMARK   77  A    between atoms: _195  and  _198
REMARK   78  A    between atoms: _198  and  _199
REMARK   79  A    between atoms: _202  and  _204
REMARK   80  A    between atoms: _204  and  _205
REMARK   81  A    between atoms: _204  and  _207
REMARK   82  A    between atoms: _207  and  _208
REMARK   83  A    between atoms: _210  and  _212
REMARK   84  A    between atoms: _212  and  _213
REMARK   85  A    between atoms: _212  and  _215
REMARK   86  A    between atoms: _215  and  _216
REMARK   87  A    between atoms: _216  and  _217
REMARK   88  A    between atoms: _222  and  _224
REMARK   89  A    between atoms: _224  and  _225
REMARK   90  A    between atoms: _224  and  _227
REMARK   91  A    between atoms: _227  and  _228
REMARK   92  A    between atoms: _233  and  _234
REMARK   93  A    between atoms: _236  and  _238
REMARK   94  A    between atoms: _238  and  _239
REMARK   95  A    between atoms: _238  and  _241
REMARK   96  A    between atoms: _243  and  _245
REMARK   97  A    between atoms: _245  and  _246
REMARK   98  A    between atoms: _245  and  _248
REMARK   99  A    between atoms: _248  and  _249
REMARK  100  A    between atoms: _251  and  _253
REMARK  101  A    between atoms: _253  and  _254
REMARK  102  A    between atoms: _253  and  _256
REMARK  103  A    between atoms: _256  and  _257
REMARK  104  A    between atoms: _257  and  _258
REMARK  105  A    between atoms: _258  and  _259
REMARK  106  A    between atoms: _268  and  _270
REMARK  107  A    between atoms: _270  and  _271
REMARK  108  A    between atoms: _270  and  _273
REMARK  109  A    between atoms: _273  and  _274
REMARK  110  A    between atoms: _276  and  _278
REMARK  111  A    between atoms: _278  and  _279
REMARK  112  A    between atoms: _278  and  _281
REMARK  113  A    between atoms: _281  and  _282
REMARK  114  A    between atoms: _282  and  _283
REMARK  115  A    between atoms: _286  and  _288
REMARK  116  A    between atoms: _288  and  _289
REMARK  117  A    between atoms: _288  and  _291
REMARK  118  A    between atoms: _291  and  _292
REMARK  119  A    between atoms: _292  and  _293
REMARK  120  A    between atoms: _293  and  _294
REMARK  121  A    between atoms: _294  and  _295
REMARK  122  A    between atoms: _299  and  _301
REMARK  123  A    between atoms: _301  and  _302
REMARK  124  A    between atoms: _301  and  _304
REMARK  125  A    between atoms: _304  and  _305
REMARK  126  A    between atoms: _305  and  _306
REMARK  127  A    between atoms: _306  and  _307
REMARK  128  A    between atoms: _307  and  _308
REMARK  129  A    between atoms: _313  and  _314
REMARK  130  A    between atoms: _319  and  _321
REMARK  131  A    between atoms: _321  and  _322
REMARK  132  A    between atoms: _321  and  _324
REMARK  133  A    between atoms: _324  and  _325
REMARK  134  A    between atoms: _328  and  _330
REMARK  135  A    between atoms: _330  and  _331
REMARK  136  A    between atoms: _330  and  _333
REMARK  137  A    between atoms: _333  and  _334
REMARK  138  A    between atoms: _340  and  _342
REMARK  139  A    between atoms: _342  and  _343
REMARK  140  A    between atoms: _342  and  _345
REMARK  141  A    between atoms: _345  and  _346
REMARK  142  A    between atoms: _351  and  _352
REMARK  143  A    between atoms: _354  and  _356
REMARK  144  A    between atoms: _356  and  _357
REMARK  145  A    between atoms: _356  and  _359
REMARK  146  A    between atoms: _359  and  _360
REMARK  147  A    between atoms: _365  and  _367
REMARK  148  A    between atoms: _367  and  _368
REMARK  149  A    between atoms: _367  and  _370
REMARK  150  A    between atoms: _370  and  _371
REMARK  151  A    between atoms: _371  and  _372
REMARK  152  A    between atoms: _377  and  _379
REMARK  153  A    between atoms: _379  and  _380
REMARK  154  A    between atoms: _379  and  _382
REMARK  155  A    between atoms: _382  and  _383
REMARK  156  A    between atoms: _386  and  _388
REMARK  157  A    between atoms: _388  and  _389
REMARK  158  A    between atoms: _388  and  _391
REMARK  159  A    between atoms: _391  and  _392
REMARK  160  A    between atoms: _392  and  _393
REMARK  161  A    between atoms: _393  and  _394
REMARK  162  A    between atoms: _394  and  _395
REMARK  163  A    between atoms: _399  and  _401
REMARK  164  A    between atoms: _401  and  _402
REMARK  165  A    between atoms: _405  and  _407
REMARK  166  A    between atoms: _407  and  _408
REMARK  167  A    between atoms: _407  and  _410
REMARK  168  A    between atoms: _410  and  _411
REMARK  169  A    between atoms: _417  and  _419
REMARK  170  A    between atoms: _419  and  _420
REMARK  171  A    between atoms: _419  and  _422
REMARK  172  A    between atoms: _422  and  _423
REMARK  173  A    between atoms: _426  and  _428
REMARK  174  A    between atoms: _428  and  _429
REMARK  175  A    between atoms: _428  and  _431
REMARK  176  A    between atoms: _431  and  _432
REMARK  177  A    between atoms: _435  and  _437
REMARK  178  A    between atoms: _437  and  _438
REMARK  179  A    between atoms: _437  and  _440
REMARK  180  A    between atoms: _443  and  _445
REMARK  181  A    between atoms: _445  and  _446
REMARK  182  A    between atoms: _445  and  _448
REMARK  183  A    between atoms: _448  and  _449
REMARK  184  A    between atoms: _449  and  _450
REMARK  185  A    between atoms: _450  and  _451
REMARK  186  A    between atoms: _451  and  _452
REMARK  187  A    between atoms: _456  and  _458
REMARK  188  A    between atoms: _458  and  _459
REMARK  189  A    between atoms: _458  and  _461
REMARK  190  A    between atoms: _461  and  _462
REMARK  191  A    between atoms: _462  and  _463
REMARK  192  A    between atoms: _468  and  _470
REMARK  193  A    between atoms: _470  and  _471
REMARK  194  A    between atoms: _470  and  _473
REMARK  195  A    between atoms: _473  and  _474
REMARK  196  A    between atoms: _480  and  _482
REMARK  197  A    between atoms: _482  and  _483
REMARK  198  A    between atoms: _482  and  _485
REMARK  199  A    between atoms: _485  and  _486
REMARK  200  A    between atoms: _490  and  _491
REMARK  201  A    between atoms: _497  and  _498
REMARK  202  A    between atoms: _503  and  _505
REMARK  203  A    between atoms: _505  and  _506
REMARK  204  A    between atoms: _505  and  _508
REMARK  205  A    between atoms: _508  and  _509
REMARK  206  A    between atoms: _512  and  _514
REMARK  207  A    between atoms: _514  and  _515
REMARK  208  A    between atoms: _514  and  _517
REMARK  209  A    between atoms: _517  and  _518
REMARK  210  A    between atoms: _523  and  _525
REMARK  211  A    between atoms: _525  and  _526
REMARK  212  A    between atoms: _525  and  _528
REMARK  213  A    between atoms: _528  and  _529
REMARK  214  A    between atoms: _532  and  _534
REMARK  215  A    between atoms: _534  and  _535
REMARK  216  A    between atoms: _534  and  _537
REMARK  217  A    between atoms: _537  and  _538
REMARK  218  A    between atoms: _538  and  _539
REMARK  219  A    between atoms: _542  and  _544
REMARK  220  A    between atoms: _544  and  _545
REMARK  221  A    between atoms: _547  and  _549
REMARK  222  A    between atoms: _549  and  _550
REMARK  223  A    between atoms: _549  and  _552
REMARK  224  A    between atoms: _552  and  _553
REMARK  225  A    between atoms: _556  and  _558
REMARK  226  A    between atoms: _558  and  _559
REMARK  227  A    between atoms: _562  and  _564
REMARK  228  A    between atoms: _564  and  _565
REMARK  229  A    between atoms: _564  and  _567
REMARK  230  A    between atoms: _567  and  _568
REMARK  231  A    between atoms: _571  and  _572
REMARK  232  A    between atoms: _577  and  _579
REMARK  233  A    between atoms: _579  and  _580
REMARK  234  A    between atoms: _579  and  _582
REMARK  235  A    between atoms: _582  and  _583
REMARK  236  A    between atoms: _589  and  _591
REMARK  237  A    between atoms: _591  and  _592
REMARK  238  A    between atoms: _591  and  _594
REMARK  239  A    between atoms: _597  and  _599
REMARK  240  A    between atoms: _599  and  _600
REMARK  241  A    between atoms: _599  and  _602
REMARK  242  A    between atoms: _602  and  _603
REMARK  243  A    between atoms: _603  and  _604
REMARK  244  A    between atoms: _607  and  _609
REMARK  245  A    between atoms: _609  and  _610
REMARK  246  A    between atoms: _609  and  _612
REMARK  247  A    between atoms: _612  and  _613
REMARK                            x       y       z     vdW  Elec       q    Type
REMARK                         _______ _______ _______ _____ _____    ______ ____
ROOT
ATOM      1  CG  TRP A   1      51.918  29.075  13.137  0.00  0.00    -0.002 A 
ATOM      2  CD2 TRP A   1      52.164  29.802  14.349  0.00  0.00    +0.013 A 
ATOM      3  CE2 TRP A   1      52.438  28.855  15.358  0.00  0.00    +0.056 A 
ATOM      4  CZ2 TRP A   1      52.725  29.227  16.680  0.00  0.00    +0.017 A 
ATOM      5  CH2 TRP A   1      52.734  30.566  16.974  0.00  0.00    +0.001 A 
ATOM      6  CZ3 TRP A   1      52.466  31.534  15.991  0.00  0.00    +0.000 A 
ATOM      7  NE1 TRP A   1      52.360  27.611  14.787  0.00  0.00    -0.352 N 
ATOM      8  HE1 TRP A   1      52.512  26.708  15.280  0.00  0.00    +0.166 HD
ATOM      9  CE3 TRP A   1      52.180  31.164  14.677  0.00  0.00    +0.001 A 
ATOM     10  CD1 TRP A   1      52.046  27.753  13.449  0.00  0.00    +0.068 A 
ENDROOT
BRANCH   1  11
ATOM     11  CB  TRP A   1      51.629  29.671  11.789  0.00  0.00    +0.053 C 
BRANCH  11  12
ATOM     12  CA  TRP A   1      52.821  30.478  11.269  0.00  0.00    +0.137 C 
BRANCH  12  13
ATOM     13  N   TRP A   1      52.414  31.396  10.214  0.00  0.00    -0.239 NA
ATOM     14  H   TRP A   1      51.468  31.317   9.788  0.00  0.00    +0.142 HD
ENDBRANCH  12  13
BRANCH  12  15
ATOM     15  C   TRP A   1      53.903  29.526  10.780  0.00  0.00    +0.224 C 
ATOM     16  O   TRP A   1      54.836  29.203  11.511  0.00  0.00    -0.287 OA
ENDBRANCH  12  15
ENDBRANCH  11  12
ENDBRANCH   1  11
TORSDOF 4
REMARK  Name = ../refined-set-2016/1zhy/1zhy_pocket.pdb
REMARK  247 active torsions:
REMARK  status: ('A' for Active; 'I' for Inactive)
REMARK    1  A    between atoms: _1  and  _3
REMARK    2  A    between atoms: _3  and  _4
REMARK    3  A    between atoms: _3  and  _6
REMARK    4  A    between atoms: _6  and  _7
REMARK    5  A    between atoms: _17  and  _19
REMARK    6  A    between atoms: _19  and  _20
REMARK    7  A    between atoms: _19  and  _22
REMARK    8  A    between atoms: _22  and  _23
REMARK    9  A    between atoms: _29  and  _31
REMARK   10  A    between atoms: _31  and  _32
REMARK   11  A    between atoms: _31  and  _34
REMARK   12  A    between atoms: _34  and  _35
REMARK   13  A    between atoms: _38  and  _40
REMARK   14  A    between atoms: _40  and  _41
REMARK   15  A    between atoms: _40  and  _43
REMARK   16  A    between atoms: _43  and  _44
REMARK   17  A    between atoms: _47  and  _49
REMARK   18  A    between atoms: _49  and  _50
REMARK   19  A    between atoms: _49  and  _52
REMARK   20  A    between atoms: _52  and  _53
REMARK   21  A    between atoms: _55  and  _57
REMARK   22  A    between atoms: _57  and  _58
REMARK   23  A    between atoms: _57  and  _60
REMARK   24  A    between atoms: _60  and  _61
REMARK   25  A    between atoms: _64  and  _66
REMARK   26  A    between atoms: _66  and  _67
REMARK   27  A    between atoms: _71  and  _72
REMARK   28  A    between atoms: _77  and  _79
REMARK   29  A    between atoms: _79  and  _80
REMARK   30  A    between atoms: _79  and  _82
REMARK   31  A    between atoms: _82  and  _83
REMARK   32  A    between atoms: _86  and  _88
REMARK   33  A    between atoms: _88  and  _89
REMARK   34  A    between atoms: _88  and  _91
REMARK   35  A    between atoms: _91  and  _92
REMARK   36  A    between atoms: _95  and  _97
REMARK   37  A    between atoms: _97  and  _98
REMARK   38  A    between atoms: _97  and  _100
REMARK   39  A    between atoms: _100  and  _101
REMARK   40  A    between atoms: _103  and  _105
REMARK   41  A    between atoms: _105  and  _106
REMARK   42  A    between atoms: _105  and  _108
REMARK   43  A    between atoms: _108  and  _109
REMARK   44  A    between atoms: _112  and  _114
REMARK   45  A    between atoms: _114  and  _115
REMARK   46  A    between atoms: _114  and  _117
REMARK   47  A    between atoms: _117  and  _118
REMARK   48  A    between atoms: _118  and  _119
REMARK   49  A    between atoms: _122  and  _124
REMARK   50  A    between atoms: _124  and  _125
REMARK   51  A    between atoms: _124  and  _127
REMARK   52  A    between atoms: _127  and  _128
REMARK   53  A    between atoms: _134  and  _136
REMARK   54  A    between atoms: _136  and  _137
REMARK   55  A    between atoms: _136  and  _139
REMARK   56  A    between atoms: _139  and  _140
REMARK   57  A    between atoms: _142  and  _144
REMARK   58  A    between atoms: _144  and  _145
REMARK   59  A    between atoms: _144  and  _147
REMARK   60  A    between atoms: _147  and  _148
REMARK   61  A    between atoms: _148  and  _149
REMARK   62  A    between atoms: _154  and  _156
REMARK   63  A    between atoms: _156  and  _157
REMARK   64  A    between atoms: _156  and  _159
REMARK   65  A    between atoms: _159  and  _160
REMARK   66  A    between atoms: _165  and  _166
REMARK   67  A    between atoms: _168  and  _170
REMARK   68  A    between atoms: _170  and  _171
REMARK   69  A    between atoms: _170  and  _173
REMARK   70  A    between atoms: _173  and  _174
REMARK   71  A    between atoms: _184  and  _186
REMARK   72  A    between atoms: _186  and  _187
REMARK   73  A    between atoms: _186  and  _189
REMARK   74  A    between atoms: _189  and  _190
REMARK   75  A    between atoms: _193  and  _195
REMARK   76  A    between atoms: _195  and  _196
REMARK   77  A    between atoms: _195  and  _198
REMARK   78  A    between atoms: _198  and  _199
REMARK   79  A    between atoms: _202  and  _204
REMARK   80  A    between atoms: _204  and  _205
REMARK   81  A    between atoms: _204  and  _207
REMARK   82  A    between atoms: _207  and  _208
REMARK   83  A    between atoms: _210  and  _212
REMARK   84  A    between atoms: _212  and  _213
REMARK   85  A    between atoms: _212  and  _215
REMARK   86  A    between atoms: _215  and  _216
REMARK   87  A    between atoms: _216  and  _217
REMARK   88  A    between atoms: _222  and  _224
REMARK   89  A    between atoms: _224  and  _225
REMARK   90  A    between atoms: _224  and  _227
REMARK   91  A    between atoms: _227  and  _228
REMARK   92  A    between atoms: _233  and  _234
REMARK   93  A    between atoms: _236  and  _238
REMARK   94  A    between atoms: _238  and  _239
REMARK   95  A    between atoms: _238  and  _241
REMARK   96  A    between atoms: _243  and  _245
REMARK   97  A    between atoms: _245  and  _246
REMARK   98  A    between atoms: _245  and  _248
REMARK   99  A    between atoms: _248  and  _249
REMARK  100  A    between atoms: _251  and  _253
REMARK  101  A    between atoms: _253  and  _254
REMARK  102  A    between atoms: _253  and  _256
REMARK  103  A    between atoms: _256  and  _257
REMARK  104  A    between atoms: _257  and  _258
REMARK  105  A    between atoms: _258  and  _259
REMARK  106  A    between atoms: _268  and  _270
REMARK  107  A    between atoms: _270  and  _271
REMARK  108  A    between atoms: _270  and  _273
REMARK  109  A    between atoms: _273  and  _274
REMARK  110  A    between atoms: _276  and  _278
REMARK  111  A    between atoms: _278  and  _279
REMARK  112  A    between atoms: _278  and  _281
REMARK  113  A    between atoms: _281  and  _282
REMARK  114  A    between atoms: _282  and  _283
REMARK  115  A    between atoms: _286  and  _288
REMARK  116  A    between atoms: _288  and  _289
REMARK  117  A    between atoms: _288  and  _291
REMARK  118  A    between atoms: _291  and  _292
REMARK  119  A    between atoms: _292  and  _293
REMARK  120  A    between atoms: _293  and  _294
REMARK  121  A    between atoms: _294  and  _295
REMARK  122  A    between atoms: _299  and  _301
REMARK  123  A    between atoms: _301  and  _302
REMARK  124  A    between atoms: _301  and  _304
REMARK  125  A    between atoms: _304  and  _305
REMARK  126  A    between atoms: _305  and  _306
REMARK  127  A    between atoms: _306  and  _307
REMARK  128  A    between atoms: _307  and  _308
REMARK  129  A    between atoms: _313  and  _314
REMARK  130  A    between atoms: _319  and  _321
REMARK  131  A    between atoms: _321  and  _322
REMARK  132  A    between atoms: _321  and  _324
REMARK  133  A    between atoms: _324  and  _325
REMARK  134  A    between atoms: _328  and  _330
REMARK  135  A    between atoms: _330  and  _331
REMARK  136  A    between atoms: _330  and  _333
REMARK  137  A    between atoms: _333  and  _334
REMARK  138  A    between atoms: _340  and  _342
REMARK  139  A    between atoms: _342  and  _343
REMARK  140  A    between atoms: _342  and  _345
REMARK  141  A    between atoms: _345  and  _346
REMARK  142  A    between atoms: _351  and  _352
REMARK  143  A    between atoms: _354  and  _356
REMARK  144  A    between atoms: _356  and  _357
REMARK  145  A    between atoms: _356  and  _359
REMARK  146  A    between atoms: _359  and  _360
REMARK  147  A    between atoms: _365  and  _367
REMARK  148  A    between atoms: _367  and  _368
REMARK  149  A    between atoms: _367  and  _370
REMARK  150  A    between atoms: _370  and  _371
REMARK  151  A    between atoms: _371  and  _372
REMARK  152  A    between atoms: _377  and  _379
REMARK  153  A    between atoms: _379  and  _380
REMARK  154  A    between atoms: _379  and  _382
REMARK  155  A    between atoms: _382  and  _383
REMARK  156  A    between atoms: _386  and  _388
REMARK  157  A    between atoms: _388  and  _389
REMARK  158  A    between atoms: _388  and  _391
REMARK  159  A    between atoms: _391  and  _392
REMARK  160  A    between atoms: _392  and  _393
REMARK  161  A    between atoms: _393  and  _394
REMARK  162  A    between atoms: _394  and  _395
REMARK  163  A    between atoms: _399  and  _401
REMARK  164  A    between atoms: _401  and  _402
REMARK  165  A    between atoms: _405  and  _407
REMARK  166  A    between atoms: _407  and  _408
REMARK  167  A    between atoms: _407  and  _410
REMARK  168  A    between atoms: _410  and  _411
REMARK  169  A    between atoms: _417  and  _419
REMARK  170  A    between atoms: _419  and  _420
REMARK  171  A    between atoms: _419  and  _422
REMARK  172  A    between atoms: _422  and  _423
REMARK  173  A    between atoms: _426  and  _428
REMARK  174  A    between atoms: _428  and  _429
REMARK  175  A    between atoms: _428  and  _431
REMARK  176  A    between atoms: _431  and  _432
REMARK  177  A    between atoms: _435  and  _437
REMARK  178  A    between atoms: _437  and  _438
REMARK  179  A    between atoms: _437  and  _440
REMARK  180  A    between atoms: _443  and  _445
REMARK  181  A    between atoms: _445  and  _446
REMARK  182  A    between atoms: _445  and  _448
REMARK  183  A    between atoms: _448  and  _449
REMARK  184  A    between atoms: _449  and  _450
REMARK  185  A    between atoms: _450  and  _451
REMARK  186  A    between atoms: _451  and  _452
REMARK  187  A    between atoms: _456  and  _458
REMARK  188  A    between atoms: _458  and  _459
REMARK  189  A    between atoms: _458  and  _461
REMARK  190  A    between atoms: _461  and  _462
REMARK  191  A    between atoms: _462  and  _463
REMARK  192  A    between atoms: _468  and  _470
REMARK  193  A    between atoms: _470  and  _471
REMARK  194  A    between atoms: _470  and  _473
REMARK  195  A    between atoms: _473  and  _474
REMARK  196  A    between atoms: _480  and  _482
REMARK  197  A    between atoms: _482  and  _483
REMARK  198  A    between atoms: _482  and  _485
REMARK  199  A    between atoms: _485  and  _486
REMARK  200  A    between atoms: _490  and  _491
REMARK  201  A    between atoms: _497  and  _498
REMARK  202  A    between atoms: _503  and  _505
REMARK  203  A    between atoms: _505  and  _506
REMARK  204  A    between atoms: _505  and  _508
REMARK  205  A    between atoms: _508  and  _509
REMARK  206  A    between atoms: _512  and  _514
REMARK  207  A    between atoms: _514  and  _515
REMARK  208  A    between atoms: _514  and  _517
REMARK  209  A    between atoms: _517  and  _518
REMARK  210  A    between atoms: _523  and  _525
REMARK  211  A    between atoms: _525  and  _526
REMARK  212  A    between atoms: _525  and  _528
REMARK  213  A    between atoms: _528  and  _529
REMARK  214  A    between atoms: _532  and  _534
REMARK  215  A    between atoms: _534  and  _535
REMARK  216  A    between atoms: _534  and  _537
REMARK  217  A    between atoms: _537  and  _538
REMARK  218  A    between atoms: _538  and  _539
REMARK  219  A    between atoms: _542  and  _544
REMARK  220  A    between atoms: _544  and  _545
REMARK  221  A    between atoms: _547  and  _549
REMARK  222  A    between atoms: _549  and  _550
REMARK  223  A    between atoms: _549  and  _552
REMARK  224  A    between atoms: _552  and  _553
REMARK  225  A    between atoms: _556  and  _558
REMARK  226  A    between atoms: _558  and  _559
REMARK  227  A    between atoms: _562  and  _564
REMARK  228  A    between atoms: _564  and  _565
REMARK  229  A    between atoms: _564  and  _567
REMARK  230  A    between atoms: _567  and  _568
REMARK  231  A    between atoms: _571  and  _572
REMARK  232  A    between atoms: _577  and  _579
REMARK  233  A    between atoms: _579  and  _580
REMARK  234  A    between atoms: _579  and  _582
REMARK  235  A    between atoms: _582  and  _583
REMARK  236  A    between atoms: _589  and  _591
REMARK  237  A    between atoms: _591  and  _592
REMARK  238  A    between atoms: _591  and  _594
REMARK  239  A    between atoms: _597  and  _599
REMARK  240  A    between atoms: _599  and  _600
REMARK  241  A    between atoms: _599  and  _602
REMARK  242  A    between atoms: _602  and  _603
REMARK  243  A    between atoms: _603  and  _604
REMARK  244  A    between atoms: _607  and  _609
REMARK  245  A    between atoms: _609  and  _610
REMARK  246  A    between atoms: _609  and  _612
REMARK  247  A    between atoms: _612  and  _613
REMARK                            x       y       z     vdW  Elec       q    Type
REMARK                         _______ _______ _______ _____ _____    ______ ____
ROOT
ATOM      1  CB  PHE A   1      56.260  31.700  13.165  0.00  0.00    +0.051 C 
ENDROOT
BRANCH   1   2
ATOM      2  CG  PHE A   1      56.588  31.716  14.635  0.00  0.00    -0.020 A 
ATOM      3  CD2 PHE A   1      56.047  30.765  15.491  0.00  0.00    -0.004 A 
ATOM      4  CE2 PHE A   1      56.362  30.760  16.850  0.00  0.00    -0.000 A 
ATOM      5  CZ  PHE A   1      57.230  31.719  17.358  0.00  0.00    -0.000 A 
ATOM      6  CE1 PHE A   1      57.777  32.676  16.510  0.00  0.00    -0.000 A 
ATOM      7  CD1 PHE A   1      57.455  32.671  15.157  0.00  0.00    -0.004 A 
ENDBRANCH   1   2
BRANCH   1   8
ATOM      8  CA  PHE A   1      57.461  31.367  12.273  0.00  0.00    +0.137 C 
BRANCH   8   9
ATOM      9  N   PHE A   1      57.053  31.205  10.883  0.00  0.00    -0.239 NA
ATOM     10  H   PHE A   1      56.043  31.225  10.636  0.00  0.00    +0.142 HD
ENDBRANCH   8   9
BRANCH   8  11
ATOM     11  C   PHE A   1      58.115  30.083  12.769  0.00  0.00    +0.224 C 
ATOM     12  O   PHE A   1      59.191  30.119  13.361  0.00  0.00    -0.287 OA
ENDBRANCH   8  11
ENDBRANCH   1   8
TORSDOF 4
REMARK  Name = ../refined-set-2016/1zhy/1zhy_pocket.pdb
REMARK  247 active torsions:
REMARK  status: ('A' for Active; 'I' for Inactive)
REMARK    1  A    between atoms: _1  and  _3
REMARK    2  A    between atoms: _3  and  _4
REMARK    3  A    between atoms: _3  and  _6
REMARK    4  A    between atoms: _6  and  _7
REMARK    5  A    between atoms: _17  and  _19
REMARK    6  A    between atoms: _19  and  _20
REMARK    7  A    between atoms: _19  and  _22
REMARK    8  A    between atoms: _22  and  _23
REMARK    9  A    between atoms: _29  and  _31
REMARK   10  A    between atoms: _31  and  _32
REMARK   11  A    between atoms: _31  and  _34
REMARK   12  A    between atoms: _34  and  _35
REMARK   13  A    between atoms: _38  and  _40
REMARK   14  A    between atoms: _40  and  _41
REMARK   15  A    between atoms: _40  and  _43
REMARK   16  A    between atoms: _43  and  _44
REMARK   17  A    between atoms: _47  and  _49
REMARK   18  A    between atoms: _49  and  _50
REMARK   19  A    between atoms: _49  and  _52
REMARK   20  A    between atoms: _52  and  _53
REMARK   21  A    between atoms: _55  and  _57
REMARK   22  A    between atoms: _57  and  _58
REMARK   23  A    between atoms: _57  and  _60
REMARK   24  A    between atoms: _60  and  _61
REMARK   25  A    between atoms: _64  and  _66
REMARK   26  A    between atoms: _66  and  _67
REMARK   27  A    between atoms: _71  and  _72
REMARK   28  A    between atoms: _77  and  _79
REMARK   29  A    between atoms: _79  and  _80
REMARK   30  A    between atoms: _79  and  _82
REMARK   31  A    between atoms: _82  and  _83
REMARK   32  A    between atoms: _86  and  _88
REMARK   33  A    between atoms: _88  and  _89
REMARK   34  A    between atoms: _88  and  _91
REMARK   35  A    between atoms: _91  and  _92
REMARK   36  A    between atoms: _95  and  _97
REMARK   37  A    between atoms: _97  and  _98
REMARK   38  A    between atoms: _97  and  _100
REMARK   39  A    between atoms: _100  and  _101
REMARK   40  A    between atoms: _103  and  _105
REMARK   41  A    between atoms: _105  and  _106
REMARK   42  A    between atoms: _105  and  _108
REMARK   43  A    between atoms: _108  and  _109
REMARK   44  A    between atoms: _112  and  _114
REMARK   45  A    between atoms: _114  and  _115
REMARK   46  A    between atoms: _114  and  _117
REMARK   47  A    between atoms: _117  and  _118
REMARK   48  A    between atoms: _118  and  _119
REMARK   49  A    between atoms: _122  and  _124
REMARK   50  A    between atoms: _124  and  _125
REMARK   51  A    between atoms: _124  and  _127
REMARK   52  A    between atoms: _127  and  _128
REMARK   53  A    between atoms: _134  and  _136
REMARK   54  A    between atoms: _136  and  _137
REMARK   55  A    between atoms: _136  and  _139
REMARK   56  A    between atoms: _139  and  _140
REMARK   57  A    between atoms: _142  and  _144
REMARK   58  A    between atoms: _144  and  _145
REMARK   59  A    between atoms: _144  and  _147
REMARK   60  A    between atoms: _147  and  _148
REMARK   61  A    between atoms: _148  and  _149
REMARK   62  A    between atoms: _154  and  _156
REMARK   63  A    between atoms: _156  and  _157
REMARK   64  A    between atoms: _156  and  _159
REMARK   65  A    between atoms: _159  and  _160
REMARK   66  A    between atoms: _165  and  _166
REMARK   67  A    between atoms: _168  and  _170
REMARK   68  A    between atoms: _170  and  _171
REMARK   69  A    between atoms: _170  and  _173
REMARK   70  A    between atoms: _173  and  _174
REMARK   71  A    between atoms: _184  and  _186
REMARK   72  A    between atoms: _186  and  _187
REMARK   73  A    between atoms: _186  and  _189
REMARK   74  A    between atoms: _189  and  _190
REMARK   75  A    between atoms: _193  and  _195
REMARK   76  A    between atoms: _195  and  _196
REMARK   77  A    between atoms: _195  and  _198
REMARK   78  A    between atoms: _198  and  _199
REMARK   79  A    between atoms: _202  and  _204
REMARK   80  A    between atoms: _204  and  _205
REMARK   81  A    between atoms: _204  and  _207
REMARK   82  A    between atoms: _207  and  _208
REMARK   83  A    between atoms: _210  and  _212
REMARK   84  A    between atoms: _212  and  _213
REMARK   85  A    between atoms: _212  and  _215
REMARK   86  A    between atoms: _215  and  _216
REMARK   87  A    between atoms: _216  and  _217
REMARK   88  A    between atoms: _222  and  _224
REMARK   89  A    between atoms: _224  and  _225
REMARK   90  A    between atoms: _224  and  _227
REMARK   91  A    between atoms: _227  and  _228
REMARK   92  A    between atoms: _233  and  _234
REMARK   93  A    between atoms: _236  and  _238
REMARK   94  A    between atoms: _238  and  _239
REMARK   95  A    between atoms: _238  and  _241
REMARK   96  A    between atoms: _243  and  _245
REMARK   97  A    between atoms: _245  and  _246
REMARK   98  A    between atoms: _245  and  _248
REMARK   99  A    between atoms: _248  and  _249
REMARK  100  A    between atoms: _251  and  _253
REMARK  101  A    between atoms: _253  and  _254
REMARK  102  A    between atoms: _253  and  _256
REMARK  103  A    between atoms: _256  and  _257
REMARK  104  A    between atoms: _257  and  _258
REMARK  105  A    between atoms: _258  and  _259
REMARK  106  A    between atoms: _268  and  _270
REMARK  107  A    between atoms: _270  and  _271
REMARK  108  A    between atoms: _270  and  _273
REMARK  109  A    between atoms: _273  and  _274
REMARK  110  A    between atoms: _276  and  _278
REMARK  111  A    between atoms: _278  and  _279
REMARK  112  A    between atoms: _278  and  _281
REMARK  113  A    between atoms: _281  and  _282
REMARK  114  A    between atoms: _282  and  _283
REMARK  115  A    between atoms: _286  and  _288
REMARK  116  A    between atoms: _288  and  _289
REMARK  117  A    between atoms: _288  and  _291
REMARK  118  A    between atoms: _291  and  _292
REMARK  119  A    between atoms: _292  and  _293
REMARK  120  A    between atoms: _293  and  _294
REMARK  121  A    between atoms: _294  and  _295
REMARK  122  A    between atoms: _299  and  _301
REMARK  123  A    between atoms: _301  and  _302
REMARK  124  A    between atoms: _301  and  _304
REMARK  125  A    between atoms: _304  and  _305
REMARK  126  A    between atoms: _305  and  _306
REMARK  127  A    between atoms: _306  and  _307
REMARK  128  A    between atoms: _307  and  _308
REMARK  129  A    between atoms: _313  and  _314
REMARK  130  A    between atoms: _319  and  _321
REMARK  131  A    between atoms: _321  and  _322
REMARK  132  A    between atoms: _321  and  _324
REMARK  133  A    between atoms: _324  and  _325
REMARK  134  A    between atoms: _328  and  _330
REMARK  135  A    between atoms: _330  and  _331
REMARK  136  A    between atoms: _330  and  _333
REMARK  137  A    between atoms: _333  and  _334
REMARK  138  A    between atoms: _340  and  _342
REMARK  139  A    between atoms: _342  and  _343
REMARK  140  A    between atoms: _342  and  _345
REMARK  141  A    between atoms: _345  and  _346
REMARK  142  A    between atoms: _351  and  _352
REMARK  143  A    between atoms: _354  and  _356
REMARK  144  A    between atoms: _356  and  _357
REMARK  145  A    between atoms: _356  and  _359
REMARK  146  A    between atoms: _359  and  _360
REMARK  147  A    between atoms: _365  and  _367
REMARK  148  A    between atoms: _367  and  _368
REMARK  149  A    between atoms: _367  and  _370
REMARK  150  A    between atoms: _370  and  _371
REMARK  151  A    between atoms: _371  and  _372
REMARK  152  A    between atoms: _377  and  _379
REMARK  153  A    between atoms: _379  and  _380
REMARK  154  A    between atoms: _379  and  _382
REMARK  155  A    between atoms: _382  and  _383
REMARK  156  A    between atoms: _386  and  _388
REMARK  157  A    between atoms: _388  and  _389
REMARK  158  A    between atoms: _388  and  _391
REMARK  159  A    between atoms: _391  and  _392
REMARK  160  A    between atoms: _392  and  _393
REMARK  161  A    between atoms: _393  and  _394
REMARK  162  A    between atoms: _394  and  _395
REMARK  163  A    between atoms: _399  and  _401
REMARK  164  A    between atoms: _401  and  _402
REMARK  165  A    between atoms: _405  and  _407
REMARK  166  A    between atoms: _407  and  _408
REMARK  167  A    between atoms: _407  and  _410
REMARK  168  A    between atoms: _410  and  _411
REMARK  169  A    between atoms: _417  and  _419
REMARK  170  A    between atoms: _419  and  _420
REMARK  171  A    between atoms: _419  and  _422
REMARK  172  A    between atoms: _422  and  _423
REMARK  173  A    between atoms: _426  and  _428
REMARK  174  A    between atoms: _428  and  _429
REMARK  175  A    between atoms: _428  and  _431
REMARK  176  A    between atoms: _431  and  _432
REMARK  177  A    between atoms: _435  and  _437
REMARK  178  A    between atoms: _437  and  _438
REMARK  179  A    between atoms: _437  and  _440
REMARK  180  A    between atoms: _443  and  _445
REMARK  181  A    between atoms: _445  and  _446
REMARK  182  A    between atoms: _445  and  _448
REMARK  183  A    between atoms: _448  and  _449
REMARK  184  A    between atoms: _449  and  _450
REMARK  185  A    between atoms: _450  and  _451
REMARK  186  A    between atoms: _451  and  _452
REMARK  187  A    between atoms: _456  and  _458
REMARK  188  A    between atoms: _458  and  _459
REMARK  189  A    between atoms: _458  and  _461
REMARK  190  A    between atoms: _461  and  _462
REMARK  191  A    between atoms: _462  and  _463
REMARK  192  A    between atoms: _468  and  _470
REMARK  193  A    between atoms: _470  and  _471
REMARK  194  A    between atoms: _470  and  _473
REMARK  195  A    between atoms: _473  and  _474
REMARK  196  A    between atoms: _480  and  _482
REMARK  197  A    between atoms: _482  and  _483
REMARK  198  A    between atoms: _482  and  _485
REMARK  199  A    between atoms: _485  and  _486
REMARK  200  A    between atoms: _490  and  _491
REMARK  201  A    between atoms: _497  and  _498
REMARK  202  A    between atoms: _503  and  _505
REMARK  203  A    between atoms: _505  and  _506
REMARK  204  A    between atoms: _505  and  _508
REMARK  205  A    between atoms: _508  and  _509
REMARK  206  A    between atoms: _512  and  _514
REMARK  207  A    between atoms: _514  and  _515
REMARK  208  A    between atoms: _514  and  _517
REMARK  209  A    between atoms: _517  and  _518
REMARK  210  A    between atoms: _523  and  _525
REMARK  211  A    between atoms: _525  and  _526
REMARK  212  A    between atoms: _525  and  _528
REMARK  213  A    between atoms: _528  and  _529
REMARK  214  A    between atoms: _532  and  _534
REMARK  215  A    between atoms: _534  and  _535
REMARK  216  A    between atoms: _534  and  _537
REMARK  217  A    between atoms: _537  and  _538
REMARK  218  A    between atoms: _538  and  _539
REMARK  219  A    between atoms: _542  and  _544
REMARK  220  A    between atoms: _544  and  _545
REMARK  221  A    between atoms: _547  and  _549
REMARK  222  A    between atoms: _549  and  _550
REMARK  223  A    between atoms: _549  and  _552
REMARK  224  A    between atoms: _552  and  _553
REMARK  225  A    between atoms: _556  and  _558
REMARK  226  A    between atoms: _558  and  _559
REMARK  227  A    between atoms: _562  and  _564
REMARK  228  A    between atoms: _564  and  _565
REMARK  229  A    between atoms: _564  and  _567
REMARK  230  A    between atoms: _567  and  _568
REMARK  231  A    between atoms: _571  and  _572
REMARK  232  A    between atoms: _577  and  _579
REMARK  233  A    between atoms: _579  and  _580
REMARK  234  A    between atoms: _579  and  _582
REMARK  235  A    between atoms: _582  and  _583
REMARK  236  A    between atoms: _589  and  _591
REMARK  237  A    between atoms: _591  and  _592
REMARK  238  A    between atoms: _591  and  _594
REMARK  239  A    between atoms: _597  and  _599
REMARK  240  A    between atoms: _599  and  _600
REMARK  241  A    between atoms: _599  and  _602
REMARK  242  A    between atoms: _602  and  _603
REMARK  243  A    between atoms: _603  and  _604
REMARK  244  A    between atoms: _607  and  _609
REMARK  245  A    between atoms: _609  and  _610
REMARK  246  A    between atoms: _609  and  _612
REMARK  247  A    between atoms: _612  and  _613
REMARK                            x       y       z     vdW  Elec       q    Type
REMARK                         _______ _______ _______ _____ _____    ______ ____
ROOT
ATOM      1  CA  ILE A   1      62.434  28.487  15.369  0.00  0.00    +0.133 C 
ENDROOT
BRANCH   1   2
ATOM      2  N   ILE A   1      62.131  29.146  14.102  0.00  0.00    -0.239 NA
ATOM      3  H   ILE A   1      61.224  28.949  13.634  0.00  0.00    +0.142 HD
ENDBRANCH   1   2
BRANCH   1   4
ATOM      4  CB  ILE A   1      61.223  27.684  15.897  0.00  0.00    +0.023 C 
ATOM      5  CG2 ILE A   1      61.597  26.970  17.188  0.00  0.00    +0.002 C 
BRANCH   4   6
ATOM      6  CG1 ILE A   1      60.027  28.610  16.111  0.00  0.00    +0.002 C 
ATOM      7  CD1 ILE A   1      60.274  29.717  17.100  0.00  0.00    +0.000 C 
ENDBRANCH   4   6
ENDBRANCH   1   4
BRANCH   1   8
ATOM      8  C   ILE A   1      63.578  27.509  15.145  0.00  0.00    +0.224 C 
ATOM      9  O   ILE A   1      64.454  27.351  15.995  0.00  0.00    -0.287 OA
ENDBRANCH   1   8
TORSDOF 4
REMARK  Name = ../refined-set-2016/1zhy/1zhy_pocket.pdb
REMARK  247 active torsions:
REMARK  status: ('A' for Active; 'I' for Inactive)
REMARK    1  A    between atoms: _1  and  _3
REMARK    2  A    between atoms: _3  and  _4
REMARK    3  A    between atoms: _3  and  _6
REMARK    4  A    between atoms: _6  and  _7
REMARK    5  A    between atoms: _17  and  _19
REMARK    6  A    between atoms: _19  and  _20
REMARK    7  A    between atoms: _19  and  _22
REMARK    8  A    between atoms: _22  and  _23
REMARK    9  A    between atoms: _29  and  _31
REMARK   10  A    between atoms: _31  and  _32
REMARK   11  A    between atoms: _31  and  _34
REMARK   12  A    between atoms: _34  and  _35
REMARK   13  A    between atoms: _38  and  _40
REMARK   14  A    between atoms: _40  and  _41
REMARK   15  A    between atoms: _40  and  _43
REMARK   16  A    between atoms: _43  and  _44
REMARK   17  A    between atoms: _47  and  _49
REMARK   18  A    between atoms: _49  and  _50
REMARK   19  A    between atoms: _49  and  _52
REMARK   20  A    between atoms: _52  and  _53
REMARK   21  A    between atoms: _55  and  _57
REMARK   22  A    between atoms: _57  and  _58
REMARK   23  A    between atoms: _57  and  _60
REMARK   24  A    between atoms: _60  and  _61
REMARK   25  A    between atoms: _64  and  _66
REMARK   26  A    between atoms: _66  and  _67
REMARK   27  A    between atoms: _71  and  _72
REMARK   28  A    between atoms: _77  and  _79
REMARK   29  A    between atoms: _79  and  _80
REMARK   30  A    between atoms: _79  and  _82
REMARK   31  A    between atoms: _82  and  _83
REMARK   32  A    between atoms: _86  and  _88
REMARK   33  A    between atoms: _88  and  _89
REMARK   34  A    between atoms: _88  and  _91
REMARK   35  A    between atoms: _91  and  _92
REMARK   36  A    between atoms: _95  and  _97
REMARK   37  A    between atoms: _97  and  _98
REMARK   38  A    between atoms: _97  and  _100
REMARK   39  A    between atoms: _100  and  _101
REMARK   40  A    between atoms: _103  and  _105
REMARK   41  A    between atoms: _105  and  _106
REMARK   42  A    between atoms: _105  and  _108
REMARK   43  A    between atoms: _108  and  _109
REMARK   44  A    between atoms: _112  and  _114
REMARK   45  A    between atoms: _114  and  _115
REMARK   46  A    between atoms: _114  and  _117
REMARK   47  A    between atoms: _117  and  _118
REMARK   48  A    between atoms: _118  and  _119
REMARK   49  A    between atoms: _122  and  _124
REMARK   50  A    between atoms: _124  and  _125
REMARK   51  A    between atoms: _124  and  _127
REMARK   52  A    between atoms: _127  and  _128
REMARK   53  A    between atoms: _134  and  _136
REMARK   54  A    between atoms: _136  and  _137
REMARK   55  A    between atoms: _136  and  _139
REMARK   56  A    between atoms: _139  and  _140
REMARK   57  A    between atoms: _142  and  _144
REMARK   58  A    between atoms: _144  and  _145
REMARK   59  A    between atoms: _144  and  _147
REMARK   60  A    between atoms: _147  and  _148
REMARK   61  A    between atoms: _148  and  _149
REMARK   62  A    between atoms: _154  and  _156
REMARK   63  A    between atoms: _156  and  _157
REMARK   64  A    between atoms: _156  and  _159
REMARK   65  A    between atoms: _159  and  _160
REMARK   66  A    between atoms: _165  and  _166
REMARK   67  A    between atoms: _168  and  _170
REMARK   68  A    between atoms: _170  and  _171
REMARK   69  A    between atoms: _170  and  _173
REMARK   70  A    between atoms: _173  and  _174
REMARK   71  A    between atoms: _184  and  _186
REMARK   72  A    between atoms: _186  and  _187
REMARK   73  A    between atoms: _186  and  _189
REMARK   74  A    between atoms: _189  and  _190
REMARK   75  A    between atoms: _193  and  _195
REMARK   76  A    between atoms: _195  and  _196
REMARK   77  A    between atoms: _195  and  _198
REMARK   78  A    between atoms: _198  and  _199
REMARK   79  A    between atoms: _202  and  _204
REMARK   80  A    between atoms: _204  and  _205
REMARK   81  A    between atoms: _204  and  _207
REMARK   82  A    between atoms: _207  and  _208
REMARK   83  A    between atoms: _210  and  _212
REMARK   84  A    between atoms: _212  and  _213
REMARK   85  A    between atoms: _212  and  _215
REMARK   86  A    between atoms: _215  and  _216
REMARK   87  A    between atoms: _216  and  _217
REMARK   88  A    between atoms: _222  and  _224
REMARK   89  A    between atoms: _224  and  _225
REMARK   90  A    between atoms: _224  and  _227
REMARK   91  A    between atoms: _227  and  _228
REMARK   92  A    between atoms: _233  and  _234
REMARK   93  A    between atoms: _236  and  _238
REMARK   94  A    between atoms: _238  and  _239
REMARK   95  A    between atoms: _238  and  _241
REMARK   96  A    between atoms: _243  and  _245
REMARK   97  A    between atoms: _245  and  _246
REMARK   98  A    between atoms: _245  and  _248
REMARK   99  A    between atoms: _248  and  _249
REMARK  100  A    between atoms: _251  and  _253
REMARK  101  A    between atoms: _253  and  _254
REMARK  102  A    between atoms: _253  and  _256
REMARK  103  A    between atoms: _256  and  _257
REMARK  104  A    between atoms: _257  and  _258
REMARK  105  A    between atoms: _258  and  _259
REMARK  106  A    between atoms: _268  and  _270
REMARK  107  A    between atoms: _270  and  _271
REMARK  108  A    between atoms: _270  and  _273
REMARK  109  A    between atoms: _273  and  _274
REMARK  110  A    between atoms: _276  and  _278
REMARK  111  A    between atoms: _278  and  _279
REMARK  112  A    between atoms: _278  and  _281
REMARK  113  A    between atoms: _281  and  _282
REMARK  114  A    between atoms: _282  and  _283
REMARK  115  A    between atoms: _286  and  _288
REMARK  116  A    between atoms: _288  and  _289
REMARK  117  A    between atoms: _288  and  _291
REMARK  118  A    between atoms: _291  and  _292
REMARK  119  A    between atoms: _292  and  _293
REMARK  120  A    between atoms: _293  and  _294
REMARK  121  A    between atoms: _294  and  _295
REMARK  122  A    between atoms: _299  and  _301
REMARK  123  A    between atoms: _301  and  _302
REMARK  124  A    between atoms: _301  and  _304
REMARK  125  A    between atoms: _304  and  _305
REMARK  126  A    between atoms: _305  and  _306
REMARK  127  A    between atoms: _306  and  _307
REMARK  128  A    between atoms: _307  and  _308
REMARK  129  A    between atoms: _313  and  _314
REMARK  130  A    between atoms: _319  and  _321
REMARK  131  A    between atoms: _321  and  _322
REMARK  132  A    between atoms: _321  and  _324
REMARK  133  A    between atoms: _324  and  _325
REMARK  134  A    between atoms: _328  and  _330
REMARK  135  A    between atoms: _330  and  _331
REMARK  136  A    between atoms: _330  and  _333
REMARK  137  A    between atoms: _333  and  _334
REMARK  138  A    between atoms: _340  and  _342
REMARK  139  A    between atoms: _342  and  _343
REMARK  140  A    between atoms: _342  and  _345
REMARK  141  A    between atoms: _345  and  _346
REMARK  142  A    between atoms: _351  and  _352
REMARK  143  A    between atoms: _354  and  _356
REMARK  144  A    between atoms: _356  and  _357
REMARK  145  A    between atoms: _356  and  _359
REMARK  146  A    between atoms: _359  and  _360
REMARK  147  A    between atoms: _365  and  _367
REMARK  148  A    between atoms: _367  and  _368
REMARK  149  A    between atoms: _367  and  _370
REMARK  150  A    between atoms: _370  and  _371
REMARK  151  A    between atoms: _371  and  _372
REMARK  152  A    between atoms: _377  and  _379
REMARK  153  A    between atoms: _379  and  _380
REMARK  154  A    between atoms: _379  and  _382
REMARK  155  A    between atoms: _382  and  _383
REMARK  156  A    between atoms: _386  and  _388
REMARK  157  A    between atoms: _388  and  _389
REMARK  158  A    between atoms: _388  and  _391
REMARK  159  A    between atoms: _391  and  _392
REMARK  160  A    between atoms: _392  and  _393
REMARK  161  A    between atoms: _393  and  _394
REMARK  162  A    between atoms: _394  and  _395
REMARK  163  A    between atoms: _399  and  _401
REMARK  164  A    between atoms: _401  and  _402
REMARK  165  A    between atoms: _405  and  _407
REMARK  166  A    between atoms: _407  and  _408
REMARK  167  A    between atoms: _407  and  _410
REMARK  168  A    between atoms: _410  and  _411
REMARK  169  A    between atoms: _417  and  _419
REMARK  170  A    between atoms: _419  and  _420
REMARK  171  A    between atoms: _419  and  _422
REMARK  172  A    between atoms: _422  and  _423
REMARK  173  A    between atoms: _426  and  _428
REMARK  174  A    between atoms: _428  and  _429
REMARK  175  A    between atoms: _428  and  _431
REMARK  176  A    between atoms: _431  and  _432
REMARK  177  A    between atoms: _435  and  _437
REMARK  178  A    between atoms: _437  and  _438
REMARK  179  A    between atoms: _437  and  _440
REMARK  180  A    between atoms: _443  and  _445
REMARK  181  A    between atoms: _445  and  _446
REMARK  182  A    between atoms: _445  and  _448
REMARK  183  A    between atoms: _448  and  _449
REMARK  184  A    between atoms: _449  and  _450
REMARK  185  A    between atoms: _450  and  _451
REMARK  186  A    between atoms: _451  and  _452
REMARK  187  A    between atoms: _456  and  _458
REMARK  188  A    between atoms: _458  and  _459
REMARK  189  A    between atoms: _458  and  _461
REMARK  190  A    between atoms: _461  and  _462
REMARK  191  A    between atoms: _462  and  _463
REMARK  192  A    between atoms: _468  and  _470
REMARK  193  A    between atoms: _470  and  _471
REMARK  194  A    between atoms: _470  and  _473
REMARK  195  A    between atoms: _473  and  _474
REMARK  196  A    between atoms: _480  and  _482
REMARK  197  A    between atoms: _482  and  _483
REMARK  198  A    between atoms: _482  and  _485
REMARK  199  A    between atoms: _485  and  _486
REMARK  200  A    between atoms: _490  and  _491
REMARK  201  A    between atoms: _497  and  _498
REMARK  202  A    between atoms: _503  and  _505
REMARK  203  A    between atoms: _505  and  _506
REMARK  204  A    between atoms: _505  and  _508
REMARK  205  A    between atoms: _508  and  _509
REMARK  206  A    between atoms: _512  and  _514
REMARK  207  A    between atoms: _514  and  _515
REMARK  208  A    between atoms: _514  and  _517
REMARK  209  A    between atoms: _517  and  _518
REMARK  210  A    between atoms: _523  and  _525
REMARK  211  A    between atoms: _525  and  _526
REMARK  212  A    between atoms: _525  and  _528
REMARK  213  A    between atoms: _528  and  _529
REMARK  214  A    between atoms: _532  and  _534
REMARK  215  A    between atoms: _534  and  _535
REMARK  216  A    between atoms: _534  and  _537
REMARK  217  A    between atoms: _537  and  _538
REMARK  218  A    between atoms: _538  and  _539
REMARK  219  A    between atoms: _542  and  _544
REMARK  220  A    between atoms: _544  and  _545
REMARK  221  A    between atoms: _547  and  _549
REMARK  222  A    between atoms: _549  and  _550
REMARK  223  A    between atoms: _549  and  _552
REMARK  224  A    between atoms: _552  and  _553
REMARK  225  A    between atoms: _556  and  _558
REMARK  226  A    between atoms: _558  and  _559
REMARK  227  A    between atoms: _562  and  _564
REMARK  228  A    between atoms: _564  and  _565
REMARK  229  A    between atoms: _564  and  _567
REMARK  230  A    between atoms: _567  and  _568
REMARK  231  A    between atoms: _571  and  _572
REMARK  232  A    between atoms: _577  and  _579
REMARK  233  A    between atoms: _579  and  _580
REMARK  234  A    between atoms: _579  and  _582
REMARK  235  A    between atoms: _582  and  _583
REMARK  236  A    between atoms: _589  and  _591
REMARK  237  A    between atoms: _591  and  _592
REMARK  238  A    between atoms: _591  and  _594
REMARK  239  A    between atoms: _597  and  _599
REMARK  240  A    between atoms: _599  and  _600
REMARK  241  A    between atoms: _599  and  _602
REMARK  242  A    between atoms: _602  and  _603
REMARK  243  A    between atoms: _603  and  _604
REMARK  244  A    between atoms: _607  and  _609
REMARK  245  A    between atoms: _609  and  _610
REMARK  246  A    between atoms: _609  and  _612
REMARK  247  A    between atoms: _612  and  _613
REMARK                            x       y       z     vdW  Elec       q    Type
REMARK                         _______ _______ _______ _____ _____    ______ ____
ROOT
ATOM      1  C   LEU A   1      62.869  36.290  20.657  0.00  0.00    +0.238 C 
ATOM      2  N   SER A   2      63.507  37.433  20.876  0.00  0.00    -0.296 N 
ATOM      3  H   SER A   2      64.259  37.466  21.594  0.00  0.00    +0.150 HD
ATOM      4  O   LEU A   1      61.975  36.174  19.816  0.00  0.00    -0.274 OA
ENDROOT
BRANCH   1   5
ATOM      5  CA  LEU A   1      63.302  35.096  21.504  0.00  0.00    +0.145 C 
BRANCH   5   6
ATOM      6  N   LEU A   1      64.694  35.176  21.940  0.00  0.00    -0.238 NA
ATOM      7  H   LEU A   1      64.910  35.101  22.954  0.00  0.00    +0.142 HD
ENDBRANCH   5   6
BRANCH   5   8
ATOM      8  CB  LEU A   1      62.379  34.971  22.719  0.00  0.00    +0.026 C 
BRANCH   8   9
ATOM      9  CG  LEU A   1      62.568  33.728  23.592  0.00  0.00    +0.002 C 
ATOM     10  CD2 LEU A   1      61.699  33.841  24.833  0.00  0.00    +0.000 C 
ATOM     11  CD1 LEU A   1      62.216  32.479  22.800  0.00  0.00    +0.000 C 
ENDBRANCH   8   9
ENDBRANCH   5   8
ENDBRANCH   1   5
BRANCH   2  12
ATOM     12  CA  SER A   2      63.177  38.643  20.133  0.00  0.00    +0.166 C 
BRANCH  12  13
ATOM     13  C   SER A   2      63.508  38.541  18.644  0.00  0.00    +0.229 C 
ATOM     14  O   SER A   2      63.083  39.379  17.850  0.00  0.00    -0.286 OA
ENDBRANCH  12  13
BRANCH  12  15
ATOM     15  CB  SER A   2      63.910  39.842  20.739  0.00  0.00    +0.165 C 
BRANCH  15  16
ATOM     16  OG  SER A   2      63.565  41.039  20.066  0.00  0.00    -0.380 OA
ATOM     17  H   SER A   2      62.590  41.190  20.143  0.00  0.00    +0.211 HD
ENDBRANCH  15  16
ENDBRANCH  12  15
ENDBRANCH   2  12
TORSDOF 8
REMARK  Name = ../refined-set-2016/1zhy/1zhy_pocket.pdb
REMARK  247 active torsions:
REMARK  status: ('A' for Active; 'I' for Inactive)
REMARK    1  A    between atoms: _1  and  _3
REMARK    2  A    between atoms: _3  and  _4
REMARK    3  A    between atoms: _3  and  _6
REMARK    4  A    between atoms: _6  and  _7
REMARK    5  A    between atoms: _17  and  _19
REMARK    6  A    between atoms: _19  and  _20
REMARK    7  A    between atoms: _19  and  _22
REMARK    8  A    between atoms: _22  and  _23
REMARK    9  A    between atoms: _29  and  _31
REMARK   10  A    between atoms: _31  and  _32
REMARK   11  A    between atoms: _31  and  _34
REMARK   12  A    between atoms: _34  and  _35
REMARK   13  A    between atoms: _38  and  _40
REMARK   14  A    between atoms: _40  and  _41
REMARK   15  A    between atoms: _40  and  _43
REMARK   16  A    between atoms: _43  and  _44
REMARK   17  A    between atoms: _47  and  _49
REMARK   18  A    between atoms: _49  and  _50
REMARK   19  A    between atoms: _49  and  _52
REMARK   20  A    between atoms: _52  and  _53
REMARK   21  A    between atoms: _55  and  _57
REMARK   22  A    between atoms: _57  and  _58
REMARK   23  A    between atoms: _57  and  _60
REMARK   24  A    between atoms: _60  and  _61
REMARK   25  A    between atoms: _64  and  _66
REMARK   26  A    between atoms: _66  and  _67
REMARK   27  A    between atoms: _71  and  _72
REMARK   28  A    between atoms: _77  and  _79
REMARK   29  A    between atoms: _79  and  _80
REMARK   30  A    between atoms: _79  and  _82
REMARK   31  A    between atoms: _82  and  _83
REMARK   32  A    between atoms: _86  and  _88
REMARK   33  A    between atoms: _88  and  _89
REMARK   34  A    between atoms: _88  and  _91
REMARK   35  A    between atoms: _91  and  _92
REMARK   36  A    between atoms: _95  and  _97
REMARK   37  A    between atoms: _97  and  _98
REMARK   38  A    between atoms: _97  and  _100
REMARK   39  A    between atoms: _100  and  _101
REMARK   40  A    between atoms: _103  and  _105
REMARK   41  A    between atoms: _105  and  _106
REMARK   42  A    between atoms: _105  and  _108
REMARK   43  A    between atoms: _108  and  _109
REMARK   44  A    between atoms: _112  and  _114
REMARK   45  A    between atoms: _114  and  _115
REMARK   46  A    between atoms: _114  and  _117
REMARK   47  A    between atoms: _117  and  _118
REMARK   48  A    between atoms: _118  and  _119
REMARK   49  A    between atoms: _122  and  _124
REMARK   50  A    between atoms: _124  and  _125
REMARK   51  A    between atoms: _124  and  _127
REMARK   52  A    between atoms: _127  and  _128
REMARK   53  A    between atoms: _134  and  _136
REMARK   54  A    between atoms: _136  and  _137
REMARK   55  A    between atoms: _136  and  _139
REMARK   56  A    between atoms: _139  and  _140
REMARK   57  A    between atoms: _142  and  _144
REMARK   58  A    between atoms: _144  and  _145
REMARK   59  A    between atoms: _144  and  _147
REMARK   60  A    between atoms: _147  and  _148
REMARK   61  A    between atoms: _148  and  _149
REMARK   62  A    between atoms: _154  and  _156
REMARK   63  A    between atoms: _156  and  _157
REMARK   64  A    between atoms: _156  and  _159
REMARK   65  A    between atoms: _159  and  _160
REMARK   66  A    between atoms: _165  and  _166
REMARK   67  A    between atoms: _168  and  _170
REMARK   68  A    between atoms: _170  and  _171
REMARK   69  A    between atoms: _170  and  _173
REMARK   70  A    between atoms: _173  and  _174
REMARK   71  A    between atoms: _184  and  _186
REMARK   72  A    between atoms: _186  and  _187
REMARK   73  A    between atoms: _186  and  _189
REMARK   74  A    between atoms: _189  and  _190
REMARK   75  A    between atoms: _193  and  _195
REMARK   76  A    between atoms: _195  and  _196
REMARK   77  A    between atoms: _195  and  _198
REMARK   78  A    between atoms: _198  and  _199
REMARK   79  A    between atoms: _202  and  _204
REMARK   80  A    between atoms: _204  and  _205
REMARK   81  A    between atoms: _204  and  _207
REMARK   82  A    between atoms: _207  and  _208
REMARK   83  A    between atoms: _210  and  _212
REMARK   84  A    between atoms: _212  and  _213
REMARK   85  A    between atoms: _212  and  _215
REMARK   86  A    between atoms: _215  and  _216
REMARK   87  A    between atoms: _216  and  _217
REMARK   88  A    between atoms: _222  and  _224
REMARK   89  A    between atoms: _224  and  _225
REMARK   90  A    between atoms: _224  and  _227
REMARK   91  A    between atoms: _227  and  _228
REMARK   92  A    between atoms: _233  and  _234
REMARK   93  A    between atoms: _236  and  _238
REMARK   94  A    between atoms: _238  and  _239
REMARK   95  A    between atoms: _238  and  _241
REMARK   96  A    between atoms: _243  and  _245
REMARK   97  A    between atoms: _245  and  _246
REMARK   98  A    between atoms: _245  and  _248
REMARK   99  A    between atoms: _248  and  _249
REMARK  100  A    between atoms: _251  and  _253
REMARK  101  A    between atoms: _253  and  _254
REMARK  102  A    between atoms: _253  and  _256
REMARK  103  A    between atoms: _256  and  _257
REMARK  104  A    between atoms: _257  and  _258
REMARK  105  A    between atoms: _258  and  _259
REMARK  106  A    between atoms: _268  and  _270
REMARK  107  A    between atoms: _270  and  _271
REMARK  108  A    between atoms: _270  and  _273
REMARK  109  A    between atoms: _273  and  _274
REMARK  110  A    between atoms: _276  and  _278
REMARK  111  A    between atoms: _278  and  _279
REMARK  112  A    between atoms: _278  and  _281
REMARK  113  A    between atoms: _281  and  _282
REMARK  114  A    between atoms: _282  and  _283
REMARK  115  A    between atoms: _286  and  _288
REMARK  116  A    between atoms: _288  and  _289
REMARK  117  A    between atoms: _288  and  _291
REMARK  118  A    between atoms: _291  and  _292
REMARK  119  A    between atoms: _292  and  _293
REMARK  120  A    between atoms: _293  and  _294
REMARK  121  A    between atoms: _294  and  _295
REMARK  122  A    between atoms: _299  and  _301
REMARK  123  A    between atoms: _301  and  _302
REMARK  124  A    between atoms: _301  and  _304
REMARK  125  A    between atoms: _304  and  _305
REMARK  126  A    between atoms: _305  and  _306
REMARK  127  A    between atoms: _306  and  _307
REMARK  128  A    between atoms: _307  and  _308
REMARK  129  A    between atoms: _313  and  _314
REMARK  130  A    between atoms: _319  and  _321
REMARK  131  A    between atoms: _321  and  _322
REMARK  132  A    between atoms: _321  and  _324
REMARK  133  A    between atoms: _324  and  _325
REMARK  134  A    between atoms: _328  and  _330
REMARK  135  A    between atoms: _330  and  _331
REMARK  136  A    between atoms: _330  and  _333
REMARK  137  A    between atoms: _333  and  _334
REMARK  138  A    between atoms: _340  and  _342
REMARK  139  A    between atoms: _342  and  _343
REMARK  140  A    between atoms: _342  and  _345
REMARK  141  A    between atoms: _345  and  _346
REMARK  142  A    between atoms: _351  and  _352
REMARK  143  A    between atoms: _354  and  _356
REMARK  144  A    between atoms: _356  and  _357
REMARK  145  A    between atoms: _356  and  _359
REMARK  146  A    between atoms: _359  and  _360
REMARK  147  A    between atoms: _365  and  _367
REMARK  148  A    between atoms: _367  and  _368
REMARK  149  A    between atoms: _367  and  _370
REMARK  150  A    between atoms: _370  and  _371
REMARK  151  A    between atoms: _371  and  _372
REMARK  152  A    between atoms: _377  and  _379
REMARK  153  A    between atoms: _379  and  _380
REMARK  154  A    between atoms: _379  and  _382
REMARK  155  A    between atoms: _382  and  _383
REMARK  156  A    between atoms: _386  and  _388
REMARK  157  A    between atoms: _388  and  _389
REMARK  158  A    between atoms: _388  and  _391
REMARK  159  A    between atoms: _391  and  _392
REMARK  160  A    between atoms: _392  and  _393
REMARK  161  A    between atoms: _393  and  _394
REMARK  162  A    between atoms: _394  and  _395
REMARK  163  A    between atoms: _399  and  _401
REMARK  164  A    between atoms: _401  and  _402
REMARK  165  A    between atoms: _405  and  _407
REMARK  166  A    between atoms: _407  and  _408
REMARK  167  A    between atoms: _407  and  _410
REMARK  168  A    between atoms: _410  and  _411
REMARK  169  A    between atoms: _417  and  _419
REMARK  170  A    between atoms: _419  and  _420
REMARK  171  A    between atoms: _419  and  _422
REMARK  172  A    between atoms: _422  and  _423
REMARK  173  A    between atoms: _426  and  _428
REMARK  174  A    between atoms: _428  and  _429
REMARK  175  A    between atoms: _428  and  _431
REMARK  176  A    between atoms: _431  and  _432
REMARK  177  A    between atoms: _435  and  _437
REMARK  178  A    between atoms: _437  and  _438
REMARK  179  A    between atoms: _437  and  _440
REMARK  180  A    between atoms: _443  and  _445
REMARK  181  A    between atoms: _445  and  _446
REMARK  182  A    between atoms: _445  and  _448
REMARK  183  A    between atoms: _448  and  _449
REMARK  184  A    between atoms: _449  and  _450
REMARK  185  A    between atoms: _450  and  _451
REMARK  186  A    between atoms: _451  and  _452
REMARK  187  A    between atoms: _456  and  _458
REMARK  188  A    between atoms: _458  and  _459
REMARK  189  A    between atoms: _458  and  _461
REMARK  190  A    between atoms: _461  and  _462
REMARK  191  A    between atoms: _462  and  _463
REMARK  192  A    between atoms: _468  and  _470
REMARK  193  A    between atoms: _470  and  _471
REMARK  194  A    between atoms: _470  and  _473
REMARK  195  A    between atoms: _473  and  _474
REMARK  196  A    between atoms: _480  and  _482
REMARK  197  A    between atoms: _482  and  _483
REMARK  198  A    between atoms: _482  and  _485
REMARK  199  A    between atoms: _485  and  _486
REMARK  200  A    between atoms: _490  and  _491
REMARK  201  A    between atoms: _497  and  _498
REMARK  202  A    between atoms: _503  and  _505
REMARK  203  A    between atoms: _505  and  _506
REMARK  204  A    between atoms: _505  and  _508
REMARK  205  A    between atoms: _508  and  _509
REMARK  206  A    between atoms: _512  and  _514
REMARK  207  A    between atoms: _514  and  _515
REMARK  208  A    between atoms: _514  and  _517
REMARK  209  A    between atoms: _517  and  _518
REMARK  210  A    between atoms: _523  and  _525
REMARK  211  A    between atoms: _525  and  _526
REMARK  212  A    between atoms: _525  and  _528
REMARK  213  A    between atoms: _528  and  _529
REMARK  214  A    between atoms: _532  and  _534
REMARK  215  A    between atoms: _534  and  _535
REMARK  216  A    between atoms: _534  and  _537
REMARK  217  A    between atoms: _537  and  _538
REMARK  218  A    between atoms: _538  and  _539
REMARK  219  A    between atoms: _542  and  _544
REMARK  220  A    between atoms: _544  and  _545
REMARK  221  A    between atoms: _547  and  _549
REMARK  222  A    between atoms: _549  and  _550
REMARK  223  A    between atoms: _549  and  _552
REMARK  224  A    between atoms: _552  and  _553
REMARK  225  A    between atoms: _556  and  _558
REMARK  226  A    between atoms: _558  and  _559
REMARK  227  A    between atoms: _562  and  _564
REMARK  228  A    between atoms: _564  and  _565
REMARK  229  A    between atoms: _564  and  _567
REMARK  230  A    between atoms: _567  and  _568
REMARK  231  A    between atoms: _571  and  _572
REMARK  232  A    between atoms: _577  and  _579
REMARK  233  A    between atoms: _579  and  _580
REMARK  234  A    between atoms: _579  and  _582
REMARK  235  A    between atoms: _582  and  _583
REMARK  236  A    between atoms: _589  and  _591
REMARK  237  A    between atoms: _591  and  _592
REMARK  238  A    between atoms: _591  and  _594
REMARK  239  A    between atoms: _597  and  _599
REMARK  240  A    between atoms: _599  and  _600
REMARK  241  A    between atoms: _599  and  _602
REMARK  242  A    between atoms: _602  and  _603
REMARK  243  A    between atoms: _603  and  _604
REMARK  244  A    between atoms: _607  and  _609
REMARK  245  A    between atoms: _609  and  _610
REMARK  246  A    between atoms: _609  and  _612
REMARK  247  A    between atoms: _612  and  _613
REMARK                            x       y       z     vdW  Elec       q    Type
REMARK                         _______ _______ _______ _____ _____    ______ ____
ROOT
ATOM      1  CA  LEU A   1      61.640  35.126  16.131  0.00  0.00    +0.133 C 
ENDROOT
BRANCH   1   2
ATOM      2  N   LEU A   1      62.634  35.980  16.772  0.00  0.00    -0.239 NA
ATOM      3  H   LEU A   1      62.525  36.223  17.777  0.00  0.00    +0.142 HD
ENDBRANCH   1   2
BRANCH   1   4
ATOM      4  C   LEU A   1      60.644  35.939  15.314  0.00  0.00    +0.224 C 
ATOM      5  O   LEU A   1      60.235  37.027  15.719  0.00  0.00    -0.287 OA
ENDBRANCH   1   4
BRANCH   1   6
ATOM      6  CB  LEU A   1      60.890  34.305  17.184  0.00  0.00    +0.025 C 
BRANCH   6   7
ATOM      7  CG  LEU A   1      61.721  33.299  17.981  0.00  0.00    +0.002 C 
ATOM      8  CD2 LEU A   1      60.842  32.603  19.004  0.00  0.00    +0.000 C 
ATOM      9  CD1 LEU A   1      62.343  32.284  17.033  0.00  0.00    +0.000 C 
ENDBRANCH   6   7
ENDBRANCH   1   6
TORSDOF 4
REMARK  Name = ../refined-set-2016/1zhy/1zhy_pocket.pdb
REMARK  247 active torsions:
REMARK  status: ('A' for Active; 'I' for Inactive)
REMARK    1  A    between atoms: _1  and  _3
REMARK    2  A    between atoms: _3  and  _4
REMARK    3  A    between atoms: _3  and  _6
REMARK    4  A    between atoms: _6  and  _7
REMARK    5  A    between atoms: _17  and  _19
REMARK    6  A    between atoms: _19  and  _20
REMARK    7  A    between atoms: _19  and  _22
REMARK    8  A    between atoms: _22  and  _23
REMARK    9  A    between atoms: _29  and  _31
REMARK   10  A    between atoms: _31  and  _32
REMARK   11  A    between atoms: _31  and  _34
REMARK   12  A    between atoms: _34  and  _35
REMARK   13  A    between atoms: _38  and  _40
REMARK   14  A    between atoms: _40  and  _41
REMARK   15  A    between atoms: _40  and  _43
REMARK   16  A    between atoms: _43  and  _44
REMARK   17  A    between atoms: _47  and  _49
REMARK   18  A    between atoms: _49  and  _50
REMARK   19  A    between atoms: _49  and  _52
REMARK   20  A    between atoms: _52  and  _53
REMARK   21  A    between atoms: _55  and  _57
REMARK   22  A    between atoms: _57  and  _58
REMARK   23  A    between atoms: _57  and  _60
REMARK   24  A    between atoms: _60  and  _61
REMARK   25  A    between atoms: _64  and  _66
REMARK   26  A    between atoms: _66  and  _67
REMARK   27  A    between atoms: _71  and  _72
REMARK   28  A    between atoms: _77  and  _79
REMARK   29  A    between atoms: _79  and  _80
REMARK   30  A    between atoms: _79  and  _82
REMARK   31  A    between atoms: _82  and  _83
REMARK   32  A    between atoms: _86  and  _88
REMARK   33  A    between atoms: _88  and  _89
REMARK   34  A    between atoms: _88  and  _91
REMARK   35  A    between atoms: _91  and  _92
REMARK   36  A    between atoms: _95  and  _97
REMARK   37  A    between atoms: _97  and  _98
REMARK   38  A    between atoms: _97  and  _100
REMARK   39  A    between atoms: _100  and  _101
REMARK   40  A    between atoms: _103  and  _105
REMARK   41  A    between atoms: _105  and  _106
REMARK   42  A    between atoms: _105  and  _108
REMARK   43  A    between atoms: _108  and  _109
REMARK   44  A    between atoms: _112  and  _114
REMARK   45  A    between atoms: _114  and  _115
REMARK   46  A    between atoms: _114  and  _117
REMARK   47  A    between atoms: _117  and  _118
REMARK   48  A    between atoms: _118  and  _119
REMARK   49  A    between atoms: _122  and  _124
REMARK   50  A    between atoms: _124  and  _125
REMARK   51  A    between atoms: _124  and  _127
REMARK   52  A    between atoms: _127  and  _128
REMARK   53  A    between atoms: _134  and  _136
REMARK   54  A    between atoms: _136  and  _137
REMARK   55  A    between atoms: _136  and  _139
REMARK   56  A    between atoms: _139  and  _140
REMARK   57  A    between atoms: _142  and  _144
REMARK   58  A    between atoms: _144  and  _145
REMARK   59  A    between atoms: _144  and  _147
REMARK   60  A    between atoms: _147  and  _148
REMARK   61  A    between atoms: _148  and  _149
REMARK   62  A    between atoms: _154  and  _156
REMARK   63  A    between atoms: _156  and  _157
REMARK   64  A    between atoms: _156  and  _159
REMARK   65  A    between atoms: _159  and  _160
REMARK   66  A    between atoms: _165  and  _166
REMARK   67  A    between atoms: _168  and  _170
REMARK   68  A    between atoms: _170  and  _171
REMARK   69  A    between atoms: _170  and  _173
REMARK   70  A    between atoms: _173  and  _174
REMARK   71  A    between atoms: _184  and  _186
REMARK   72  A    between atoms: _186  and  _187
REMARK   73  A    between atoms: _186  and  _189
REMARK   74  A    between atoms: _189  and  _190
REMARK   75  A    between atoms: _193  and  _195
REMARK   76  A    between atoms: _195  and  _196
REMARK   77  A    between atoms: _195  and  _198
REMARK   78  A    between atoms: _198  and  _199
REMARK   79  A    between atoms: _202  and  _204
REMARK   80  A    between atoms: _204  and  _205
REMARK   81  A    between atoms: _204  and  _207
REMARK   82  A    between atoms: _207  and  _208
REMARK   83  A    between atoms: _210  and  _212
REMARK   84  A    between atoms: _212  and  _213
REMARK   85  A    between atoms: _212  and  _215
REMARK   86  A    between atoms: _215  and  _216
REMARK   87  A    between atoms: _216  and  _217
REMARK   88  A    between atoms: _222  and  _224
REMARK   89  A    between atoms: _224  and  _225
REMARK   90  A    between atoms: _224  and  _227
REMARK   91  A    between atoms: _227  and  _228
REMARK   92  A    between atoms: _233  and  _234
REMARK   93  A    between atoms: _236  and  _238
REMARK   94  A    between atoms: _238  and  _239
REMARK   95  A    between atoms: _238  and  _241
REMARK   96  A    between atoms: _243  and  _245
REMARK   97  A    between atoms: _245  and  _246
REMARK   98  A    between atoms: _245  and  _248
REMARK   99  A    between atoms: _248  and  _249
REMARK  100  A    between atoms: _251  and  _253
REMARK  101  A    between atoms: _253  and  _254
REMARK  102  A    between atoms: _253  and  _256
REMARK  103  A    between atoms: _256  and  _257
REMARK  104  A    between atoms: _257  and  _258
REMARK  105  A    between atoms: _258  and  _259
REMARK  106  A    between atoms: _268  and  _270
REMARK  107  A    between atoms: _270  and  _271
REMARK  108  A    between atoms: _270  and  _273
REMARK  109  A    between atoms: _273  and  _274
REMARK  110  A    between atoms: _276  and  _278
REMARK  111  A    between atoms: _278  and  _279
REMARK  112  A    between atoms: _278  and  _281
REMARK  113  A    between atoms: _281  and  _282
REMARK  114  A    between atoms: _282  and  _283
REMARK  115  A    between atoms: _286  and  _288
REMARK  116  A    between atoms: _288  and  _289
REMARK  117  A    between atoms: _288  and  _291
REMARK  118  A    between atoms: _291  and  _292
REMARK  119  A    between atoms: _292  and  _293
REMARK  120  A    between atoms: _293  and  _294
REMARK  121  A    between atoms: _294  and  _295
REMARK  122  A    between atoms: _299  and  _301
REMARK  123  A    between atoms: _301  and  _302
REMARK  124  A    between atoms: _301  and  _304
REMARK  125  A    between atoms: _304  and  _305
REMARK  126  A    between atoms: _305  and  _306
REMARK  127  A    between atoms: _306  and  _307
REMARK  128  A    between atoms: _307  and  _308
REMARK  129  A    between atoms: _313  and  _314
REMARK  130  A    between atoms: _319  and  _321
REMARK  131  A    between atoms: _321  and  _322
REMARK  132  A    between atoms: _321  and  _324
REMARK  133  A    between atoms: _324  and  _325
REMARK  134  A    between atoms: _328  and  _330
REMARK  135  A    between atoms: _330  and  _331
REMARK  136  A    between atoms: _330  and  _333
REMARK  137  A    between atoms: _333  and  _334
REMARK  138  A    between atoms: _340  and  _342
REMARK  139  A    between atoms: _342  and  _343
REMARK  140  A    between atoms: _342  and  _345
REMARK  141  A    between atoms: _345  and  _346
REMARK  142  A    between atoms: _351  and  _352
REMARK  143  A    between atoms: _354  and  _356
REMARK  144  A    between atoms: _356  and  _357
REMARK  145  A    between atoms: _356  and  _359
REMARK  146  A    between atoms: _359  and  _360
REMARK  147  A    between atoms: _365  and  _367
REMARK  148  A    between atoms: _367  and  _368
REMARK  149  A    between atoms: _367  and  _370
REMARK  150  A    between atoms: _370  and  _371
REMARK  151  A    between atoms: _371  and  _372
REMARK  152  A    between atoms: _377  and  _379
REMARK  153  A    between atoms: _379  and  _380
REMARK  154  A    between atoms: _379  and  _382
REMARK  155  A    between atoms: _382  and  _383
REMARK  156  A    between atoms: _386  and  _388
REMARK  157  A    between atoms: _388  and  _389
REMARK  158  A    between atoms: _388  and  _391
REMARK  159  A    between atoms: _391  and  _392
REMARK  160  A    between atoms: _392  and  _393
REMARK  161  A    between atoms: _393  and  _394
REMARK  162  A    between atoms: _394  and  _395
REMARK  163  A    between atoms: _399  and  _401
REMARK  164  A    between atoms: _401  and  _402
REMARK  165  A    between atoms: _405  and  _407
REMARK  166  A    between atoms: _407  and  _408
REMARK  167  A    between atoms: _407  and  _410
REMARK  168  A    between atoms: _410  and  _411
REMARK  169  A    between atoms: _417  and  _419
REMARK  170  A    between atoms: _419  and  _420
REMARK  171  A    between atoms: _419  and  _422
REMARK  172  A    between atoms: _422  and  _423
REMARK  173  A    between atoms: _426  and  _428
REMARK  174  A    between atoms: _428  and  _429
REMARK  175  A    between atoms: _428  and  _431
REMARK  176  A    between atoms: _431  and  _432
REMARK  177  A    between atoms: _435  and  _437
REMARK  178  A    between atoms: _437  and  _438
REMARK  179  A    between atoms: _437  and  _440
REMARK  180  A    between atoms: _443  and  _445
REMARK  181  A    between atoms: _445  and  _446
REMARK  182  A    between atoms: _445  and  _448
REMARK  183  A    between atoms: _448  and  _449
REMARK  184  A    between atoms: _449  and  _450
REMARK  185  A    between atoms: _450  and  _451
REMARK  186  A    between atoms: _451  and  _452
REMARK  187  A    between atoms: _456  and  _458
REMARK  188  A    between atoms: _458  and  _459
REMARK  189  A    between atoms: _458  and  _461
REMARK  190  A    between atoms: _461  and  _462
REMARK  191  A    between atoms: _462  and  _463
REMARK  192  A    between atoms: _468  and  _470
REMARK  193  A    between atoms: _470  and  _471
REMARK  194  A    between atoms: _470  and  _473
REMARK  195  A    between atoms: _473  and  _474
REMARK  196  A    between atoms: _480  and  _482
REMARK  197  A    between atoms: _482  and  _483
REMARK  198  A    between atoms: _482  and  _485
REMARK  199  A    between atoms: _485  and  _486
REMARK  200  A    between atoms: _490  and  _491
REMARK  201  A    between atoms: _497  and  _498
REMARK  202  A    between atoms: _503  and  _505
REMARK  203  A    between atoms: _505  and  _506
REMARK  204  A    between atoms: _505  and  _508
REMARK  205  A    between atoms: _508  and  _509
REMARK  206  A    between atoms: _512  and  _514
REMARK  207  A    between atoms: _514  and  _515
REMARK  208  A    between atoms: _514  and  _517
REMARK  209  A    between atoms: _517  and  _518
REMARK  210  A    between atoms: _523  and  _525
REMARK  211  A    between atoms: _525  and  _526
REMARK  212  A    between atoms: _525  and  _528
REMARK  213  A    between atoms: _528  and  _529
REMARK  214  A    between atoms: _532  and  _534
REMARK  215  A    between atoms: _534  and  _535
REMARK  216  A    between atoms: _534  and  _537
REMARK  217  A    between atoms: _537  and  _538
REMARK  218  A    between atoms: _538  and  _539
REMARK  219  A    between atoms: _542  and  _544
REMARK  220  A    between atoms: _544  and  _545
REMARK  221  A    between atoms: _547  and  _549
REMARK  222  A    between atoms: _549  and  _550
REMARK  223  A    between atoms: _549  and  _552
REMARK  224  A    between atoms: _552  and  _553
REMARK  225  A    between atoms: _556  and  _558
REMARK  226  A    between atoms: _558  and  _559
REMARK  227  A    between atoms: _562  and  _564
REMARK  228  A    between atoms: _564  and  _565
REMARK  229  A    between atoms: _564  and  _567
REMARK  230  A    between atoms: _567  and  _568
REMARK  231  A    between atoms: _571  and  _572
REMARK  232  A    between atoms: _577  and  _579
REMARK  233  A    between atoms: _579  and  _580
REMARK  234  A    between atoms: _579  and  _582
REMARK  235  A    between atoms: _582  and  _583
REMARK  236  A    between atoms: _589  and  _591
REMARK  237  A    between atoms: _591  and  _592
REMARK  238  A    between atoms: _591  and  _594
REMARK  239  A    between atoms: _597  and  _599
REMARK  240  A    between atoms: _599  and  _600
REMARK  241  A    between atoms: _599  and  _602
REMARK  242  A    between atoms: _602  and  _603
REMARK  243  A    between atoms: _603  and  _604
REMARK  244  A    between atoms: _607  and  _609
REMARK  245  A    between atoms: _609  and  _610
REMARK  246  A    between atoms: _609  and  _612
REMARK  247  A    between atoms: _612  and  _613
REMARK                            x       y       z     vdW  Elec       q    Type
REMARK                         _______ _______ _______ _____ _____    ______ ____
ROOT
ATOM      1  C   ALA A   1      55.180  36.900  14.792  0.00  0.00    +0.241 C 
ATOM      2  O   ALA A   1      55.257  38.128  14.766  0.00  0.00    -0.273 OA
ATOM      3  N   PRO A   2      54.188  36.242  14.181  0.00  0.00    -0.273 N 
ATOM      4  CD  PRO A   2      53.997  34.787  14.055  0.00  0.00    +0.094 C 
ATOM      5  CG  PRO A   2      52.561  34.694  13.596  0.00  0.00    +0.024 C 
ATOM      6  CB  PRO A   2      52.402  35.873  12.710  0.00  0.00    +0.030 C 
ATOM      7  CA  PRO A   2      53.144  36.976  13.460  0.00  0.00    +0.140 C 
ENDROOT
BRANCH   1   8
ATOM      8  CA  ALA A   1      56.227  36.063  15.519  0.00  0.00    +0.145 C 
ATOM      9  CB  ALA A   1      56.234  36.398  17.004  0.00  0.00    +0.028 C 
BRANCH   8  10
ATOM     10  N   ALA A   1      57.546  36.295  14.948  0.00  0.00    -0.238 NA
ATOM     11  H   ALA A   1      58.228  36.885  15.465  0.00  0.00    +0.142 HD
ENDBRANCH   8  10
ENDBRANCH   1   8
BRANCH   7  12
ATOM     12  C   PRO A   2      52.233  37.784  14.381  0.00  0.00    +0.227 C 
ATOM     13  O   PRO A   2      52.081  37.470  15.557  0.00  0.00    -0.286 OA
ENDBRANCH   7  12
TORSDOF 3
REMARK  Name = ../refined-set-2016/1zhy/1zhy_pocket.pdb
REMARK  247 active torsions:
REMARK  status: ('A' for Active; 'I' for Inactive)
REMARK    1  A    between atoms: _1  and  _3
REMARK    2  A    between atoms: _3  and  _4
REMARK    3  A    between atoms: _3  and  _6
REMARK    4  A    between atoms: _6  and  _7
REMARK    5  A    between atoms: _17  and  _19
REMARK    6  A    between atoms: _19  and  _20
REMARK    7  A    between atoms: _19  and  _22
REMARK    8  A    between atoms: _22  and  _23
REMARK    9  A    between atoms: _29  and  _31
REMARK   10  A    between atoms: _31  and  _32
REMARK   11  A    between atoms: _31  and  _34
REMARK   12  A    between atoms: _34  and  _35
REMARK   13  A    between atoms: _38  and  _40
REMARK   14  A    between atoms: _40  and  _41
REMARK   15  A    between atoms: _40  and  _43
REMARK   16  A    between atoms: _43  and  _44
REMARK   17  A    between atoms: _47  and  _49
REMARK   18  A    between atoms: _49  and  _50
REMARK   19  A    between atoms: _49  and  _52
REMARK   20  A    between atoms: _52  and  _53
REMARK   21  A    between atoms: _55  and  _57
REMARK   22  A    between atoms: _57  and  _58
REMARK   23  A    between atoms: _57  and  _60
REMARK   24  A    between atoms: _60  and  _61
REMARK   25  A    between atoms: _64  and  _66
REMARK   26  A    between atoms: _66  and  _67
REMARK   27  A    between atoms: _71  and  _72
REMARK   28  A    between atoms: _77  and  _79
REMARK   29  A    between atoms: _79  and  _80
REMARK   30  A    between atoms: _79  and  _82
REMARK   31  A    between atoms: _82  and  _83
REMARK   32  A    between atoms: _86  and  _88
REMARK   33  A    between atoms: _88  and  _89
REMARK   34  A    between atoms: _88  and  _91
REMARK   35  A    between atoms: _91  and  _92
REMARK   36  A    between atoms: _95  and  _97
REMARK   37  A    between atoms: _97  and  _98
REMARK   38  A    between atoms: _97  and  _100
REMARK   39  A    between atoms: _100  and  _101
REMARK   40  A    between atoms: _103  and  _105
REMARK   41  A    between atoms: _105  and  _106
REMARK   42  A    between atoms: _105  and  _108
REMARK   43  A    between atoms: _108  and  _109
REMARK   44  A    between atoms: _112  and  _114
REMARK   45  A    between atoms: _114  and  _115
REMARK   46  A    between atoms: _114  and  _117
REMARK   47  A    between atoms: _117  and  _118
REMARK   48  A    between atoms: _118  and  _119
REMARK   49  A    between atoms: _122  and  _124
REMARK   50  A    between atoms: _124  and  _125
REMARK   51  A    between atoms: _124  and  _127
REMARK   52  A    between atoms: _127  and  _128
REMARK   53  A    between atoms: _134  and  _136
REMARK   54  A    between atoms: _136  and  _137
REMARK   55  A    between atoms: _136  and  _139
REMARK   56  A    between atoms: _139  and  _140
REMARK   57  A    between atoms: _142  and  _144
REMARK   58  A    between atoms: _144  and  _145
REMARK   59  A    between atoms: _144  and  _147
REMARK   60  A    between atoms: _147  and  _148
REMARK   61  A    between atoms: _148  and  _149
REMARK   62  A    between atoms: _154  and  _156
REMARK   63  A    between atoms: _156  and  _157
REMARK   64  A    between atoms: _156  and  _159
REMARK   65  A    between atoms: _159  and  _160
REMARK   66  A    between atoms: _165  and  _166
REMARK   67  A    between atoms: _168  and  _170
REMARK   68  A    between atoms: _170  and  _171
REMARK   69  A    between atoms: _170  and  _173
REMARK   70  A    between atoms: _173  and  _174
REMARK   71  A    between atoms: _184  and  _186
REMARK   72  A    between atoms: _186  and  _187
REMARK   73  A    between atoms: _186  and  _189
REMARK   74  A    between atoms: _189  and  _190
REMARK   75  A    between atoms: _193  and  _195
REMARK   76  A    between atoms: _195  and  _196
REMARK   77  A    between atoms: _195  and  _198
REMARK   78  A    between atoms: _198  and  _199
REMARK   79  A    between atoms: _202  and  _204
REMARK   80  A    between atoms: _204  and  _205
REMARK   81  A    between atoms: _204  and  _207
REMARK   82  A    between atoms: _207  and  _208
REMARK   83  A    between atoms: _210  and  _212
REMARK   84  A    between atoms: _212  and  _213
REMARK   85  A    between atoms: _212  and  _215
REMARK   86  A    between atoms: _215  and  _216
REMARK   87  A    between atoms: _216  and  _217
REMARK   88  A    between atoms: _222  and  _224
REMARK   89  A    between atoms: _224  and  _225
REMARK   90  A    between atoms: _224  and  _227
REMARK   91  A    between atoms: _227  and  _228
REMARK   92  A    between atoms: _233  and  _234
REMARK   93  A    between atoms: _236  and  _238
REMARK   94  A    between atoms: _238  and  _239
REMARK   95  A    between atoms: _238  and  _241
REMARK   96  A    between atoms: _243  and  _245
REMARK   97  A    between atoms: _245  and  _246
REMARK   98  A    between atoms: _245  and  _248
REMARK   99  A    between atoms: _248  and  _249
REMARK  100  A    between atoms: _251  and  _253
REMARK  101  A    between atoms: _253  and  _254
REMARK  102  A    between atoms: _253  and  _256
REMARK  103  A    between atoms: _256  and  _257
REMARK  104  A    between atoms: _257  and  _258
REMARK  105  A    between atoms: _258  and  _259
REMARK  106  A    between atoms: _268  and  _270
REMARK  107  A    between atoms: _270  and  _271
REMARK  108  A    between atoms: _270  and  _273
REMARK  109  A    between atoms: _273  and  _274
REMARK  110  A    between atoms: _276  and  _278
REMARK  111  A    between atoms: _278  and  _279
REMARK  112  A    between atoms: _278  and  _281
REMARK  113  A    between atoms: _281  and  _282
REMARK  114  A    between atoms: _282  and  _283
REMARK  115  A    between atoms: _286  and  _288
REMARK  116  A    between atoms: _288  and  _289
REMARK  117  A    between atoms: _288  and  _291
REMARK  118  A    between atoms: _291  and  _292
REMARK  119  A    between atoms: _292  and  _293
REMARK  120  A    between atoms: _293  and  _294
REMARK  121  A    between atoms: _294  and  _295
REMARK  122  A    between atoms: _299  and  _301
REMARK  123  A    between atoms: _301  and  _302
REMARK  124  A    between atoms: _301  and  _304
REMARK  125  A    between atoms: _304  and  _305
REMARK  126  A    between atoms: _305  and  _306
REMARK  127  A    between atoms: _306  and  _307
REMARK  128  A    between atoms: _307  and  _308
REMARK  129  A    between atoms: _313  and  _314
REMARK  130  A    between atoms: _319  and  _321
REMARK  131  A    between atoms: _321  and  _322
REMARK  132  A    between atoms: _321  and  _324
REMARK  133  A    between atoms: _324  and  _325
REMARK  134  A    between atoms: _328  and  _330
REMARK  135  A    between atoms: _330  and  _331
REMARK  136  A    between atoms: _330  and  _333
REMARK  137  A    between atoms: _333  and  _334
REMARK  138  A    between atoms: _340  and  _342
REMARK  139  A    between atoms: _342  and  _343
REMARK  140  A    between atoms: _342  and  _345
REMARK  141  A    between atoms: _345  and  _346
REMARK  142  A    between atoms: _351  and  _352
REMARK  143  A    between atoms: _354  and  _356
REMARK  144  A    between atoms: _356  and  _357
REMARK  145  A    between atoms: _356  and  _359
REMARK  146  A    between atoms: _359  and  _360
REMARK  147  A    between atoms: _365  and  _367
REMARK  148  A    between atoms: _367  and  _368
REMARK  149  A    between atoms: _367  and  _370
REMARK  150  A    between atoms: _370  and  _371
REMARK  151  A    between atoms: _371  and  _372
REMARK  152  A    between atoms: _377  and  _379
REMARK  153  A    between atoms: _379  and  _380
REMARK  154  A    between atoms: _379  and  _382
REMARK  155  A    between atoms: _382  and  _383
REMARK  156  A    between atoms: _386  and  _388
REMARK  157  A    between atoms: _388  and  _389
REMARK  158  A    between atoms: _388  and  _391
REMARK  159  A    between atoms: _391  and  _392
REMARK  160  A    between atoms: _392  and  _393
REMARK  161  A    between atoms: _393  and  _394
REMARK  162  A    between atoms: _394  and  _395
REMARK  163  A    between atoms: _399  and  _401
REMARK  164  A    between atoms: _401  and  _402
REMARK  165  A    between atoms: _405  and  _407
REMARK  166  A    between atoms: _407  and  _408
REMARK  167  A    between atoms: _407  and  _410
REMARK  168  A    between atoms: _410  and  _411
REMARK  169  A    between atoms: _417  and  _419
REMARK  170  A    between atoms: _419  and  _420
REMARK  171  A    between atoms: _419  and  _422
REMARK  172  A    between atoms: _422  and  _423
REMARK  173  A    between atoms: _426  and  _428
REMARK  174  A    between atoms: _428  and  _429
REMARK  175  A    between atoms: _428  and  _431
REMARK  176  A    between atoms: _431  and  _432
REMARK  177  A    between atoms: _435  and  _437
REMARK  178  A    between atoms: _437  and  _438
REMARK  179  A    between atoms: _437  and  _440
REMARK  180  A    between atoms: _443  and  _445
REMARK  181  A    between atoms: _445  and  _446
REMARK  182  A    between atoms: _445  and  _448
REMARK  183  A    between atoms: _448  and  _449
REMARK  184  A    between atoms: _449  and  _450
REMARK  185  A    between atoms: _450  and  _451
REMARK  186  A    between atoms: _451  and  _452
REMARK  187  A    between atoms: _456  and  _458
REMARK  188  A    between atoms: _458  and  _459
REMARK  189  A    between atoms: _458  and  _461
REMARK  190  A    between atoms: _461  and  _462
REMARK  191  A    between atoms: _462  and  _463
REMARK  192  A    between atoms: _468  and  _470
REMARK  193  A    between atoms: _470  and  _471
REMARK  194  A    between atoms: _470  and  _473
REMARK  195  A    between atoms: _473  and  _474
REMARK  196  A    between atoms: _480  and  _482
REMARK  197  A    between atoms: _482  and  _483
REMARK  198  A    between atoms: _482  and  _485
REMARK  199  A    between atoms: _485  and  _486
REMARK  200  A    between atoms: _490  and  _491
REMARK  201  A    between atoms: _497  and  _498
REMARK  202  A    between atoms: _503  and  _505
REMARK  203  A    between atoms: _505  and  _506
REMARK  204  A    between atoms: _505  and  _508
REMARK  205  A    between atoms: _508  and  _509
REMARK  206  A    between atoms: _512  and  _514
REMARK  207  A    between atoms: _514  and  _515
REMARK  208  A    between atoms: _514  and  _517
REMARK  209  A    between atoms: _517  and  _518
REMARK  210  A    between atoms: _523  and  _525
REMARK  211  A    between atoms: _525  and  _526
REMARK  212  A    between atoms: _525  and  _528
REMARK  213  A    between atoms: _528  and  _529
REMARK  214  A    between atoms: _532  and  _534
REMARK  215  A    between atoms: _534  and  _535
REMARK  216  A    between atoms: _534  and  _537
REMARK  217  A    between atoms: _537  and  _538
REMARK  218  A    between atoms: _538  and  _539
REMARK  219  A    between atoms: _542  and  _544
REMARK  220  A    between atoms: _544  and  _545
REMARK  221  A    between atoms: _547  and  _549
REMARK  222  A    between atoms: _549  and  _550
REMARK  223  A    between atoms: _549  and  _552
REMARK  224  A    between atoms: _552  and  _553
REMARK  225  A    between atoms: _556  and  _558
REMARK  226  A    between atoms: _558  and  _559
REMARK  227  A    between atoms: _562  and  _564
REMARK  228  A    between atoms: _564  and  _565
REMARK  229  A    between atoms: _564  and  _567
REMARK  230  A    between atoms: _567  and  _568
REMARK  231  A    between atoms: _571  and  _572
REMARK  232  A    between atoms: _577  and  _579
REMARK  233  A    between atoms: _579  and  _580
REMARK  234  A    between atoms: _579  and  _582
REMARK  235  A    between atoms: _582  and  _583
REMARK  236  A    between atoms: _589  and  _591
REMARK  237  A    between atoms: _591  and  _592
REMARK  238  A    between atoms: _591  and  _594
REMARK  239  A    between atoms: _597  and  _599
REMARK  240  A    between atoms: _599  and  _600
REMARK  241  A    between atoms: _599  and  _602
REMARK  242  A    between atoms: _602  and  _603
REMARK  243  A    between atoms: _603  and  _604
REMARK  244  A    between atoms: _607  and  _609
REMARK  245  A    between atoms: _609  and  _610
REMARK  246  A    between atoms: _609  and  _612
REMARK  247  A    between atoms: _612  and  _613
REMARK                            x       y       z     vdW  Elec       q    Type
REMARK                         _______ _______ _______ _____ _____    ______ ____
ROOT
ATOM      1  CA  LEU A   2      51.546  39.110  19.767  0.00  0.00    +0.149 C 
ENDROOT
BRANCH   1   4
ATOM      2  C   ILE A   1      51.048  36.777  19.300  0.00  0.00    +0.238 C 
ATOM      3  O   ILE A   1      51.638  36.414  20.313  0.00  0.00    -0.274 OA
ATOM      4  N   LEU A   2      50.945  38.055  18.953  0.00  0.00    -0.297 N 
ATOM      5  H   LEU A   2      50.428  38.309  18.087  0.00  0.00    +0.150 HD
BRANCH   2   6
ATOM      6  CA  ILE A   1      50.373  35.763  18.379  0.00  0.00    +0.145 C 
BRANCH   6   7
ATOM      7  N   ILE A   1      49.847  36.407  17.182  0.00  0.00    -0.238 NA
ATOM      8  H   ILE A   1      50.500  36.753  16.450  0.00  0.00    +0.142 HD
ENDBRANCH   6   7
BRANCH   6   9
ATOM      9  CB  ILE A   1      51.363  34.620  18.008  0.00  0.00    +0.025 C 
ATOM     10  CG2 ILE A   1      52.759  35.172  17.785  0.00  0.00    +0.002 C 
BRANCH   9  11
ATOM     11  CG1 ILE A   1      51.374  33.559  19.111  0.00  0.00    +0.002 C 
ATOM     12  CD1 ILE A   1      50.049  32.837  19.273  0.00  0.00    +0.000 C 
ENDBRANCH   9  11
ENDBRANCH   6   9
ENDBRANCH   2   6
ENDBRANCH   1   4
BRANCH   1  13
ATOM     13  C   LEU A   2      50.607  39.670  20.830  0.00  0.00    +0.241 C 
ATOM     14  N   SER A   3      51.164  39.949  22.004  0.00  0.00    -0.296 N 
ATOM     15  H   SER A   3      52.173  39.740  22.146  0.00  0.00    +0.150 HD
ATOM     16  O   LEU A   2      49.415  39.847  20.594  0.00  0.00    -0.273 OA
BRANCH  14  17
ATOM     17  CA  SER A   3      50.404  40.538  23.098  0.00  0.00    +0.166 C 
BRANCH  17  18
ATOM     18  CB  SER A   3      50.813  41.997  23.236  0.00  0.00    +0.229 C 
ATOM     19  OG  SER A   3      51.982  42.335  23.072  0.00  0.00    -0.286 OA
ENDBRANCH  17  18
BRANCH  17  20
ATOM     20  C   SER A   3      50.697  39.822  24.412  0.00  0.00    +0.165 C 
BRANCH  20  21
ATOM     21  O   SER A   3      50.295  40.626  25.507  0.00  0.00    -0.380 OA
ATOM     22  H   SER A   3      50.490  40.151  26.353  0.00  0.00    +0.211 HD
ENDBRANCH  20  21
ENDBRANCH  17  20
ENDBRANCH  14  17
ENDBRANCH   1  13
BRANCH   1  23
ATOM     23  CB  LEU A   2      52.008  40.270  18.880  0.00  0.00    +0.029 C 
BRANCH  23  24
ATOM     24  CG  LEU A   2      53.023  39.972  17.777  0.00  0.00    +0.002 C 
ATOM     25  CD2 LEU A   2      54.296  39.375  18.376  0.00  0.00    +0.000 C 
ATOM     26  CD1 LEU A   2      53.337  41.265  17.036  0.00  0.00    +0.000 C 
ENDBRANCH  23  24
ENDBRANCH   1  23
TORSDOF 12
REMARK  Name = ../refined-set-2016/1zhy/1zhy_pocket.pdb
REMARK  247 active torsions:
REMARK  status: ('A' for Active; 'I' for Inactive)
REMARK    1  A    between atoms: _1  and  _3
REMARK    2  A    between atoms: _3  and  _4
REMARK    3  A    between atoms: _3  and  _6
REMARK    4  A    between atoms: _6  and  _7
REMARK    5  A    between atoms: _17  and  _19
REMARK    6  A    between atoms: _19  and  _20
REMARK    7  A    between atoms: _19  and  _22
REMARK    8  A    between atoms: _22  and  _23
REMARK    9  A    between atoms: _29  and  _31
REMARK   10  A    between atoms: _31  and  _32
REMARK   11  A    between atoms: _31  and  _34
REMARK   12  A    between atoms: _34  and  _35
REMARK   13  A    between atoms: _38  and  _40
REMARK   14  A    between atoms: _40  and  _41
REMARK   15  A    between atoms: _40  and  _43
REMARK   16  A    between atoms: _43  and  _44
REMARK   17  A    between atoms: _47  and  _49
REMARK   18  A    between atoms: _49  and  _50
REMARK   19  A    between atoms: _49  and  _52
REMARK   20  A    between atoms: _52  and  _53
REMARK   21  A    between atoms: _55  and  _57
REMARK   22  A    between atoms: _57  and  _58
REMARK   23  A    between atoms: _57  and  _60
REMARK   24  A    between atoms: _60  and  _61
REMARK   25  A    between atoms: _64  and  _66
REMARK   26  A    between atoms: _66  and  _67
REMARK   27  A    between atoms: _71  and  _72
REMARK   28  A    between atoms: _77  and  _79
REMARK   29  A    between atoms: _79  and  _80
REMARK   30  A    between atoms: _79  and  _82
REMARK   31  A    between atoms: _82  and  _83
REMARK   32  A    between atoms: _86  and  _88
REMARK   33  A    between atoms: _88  and  _89
REMARK   34  A    between atoms: _88  and  _91
REMARK   35  A    between atoms: _91  and  _92
REMARK   36  A    between atoms: _95  and  _97
REMARK   37  A    between atoms: _97  and  _98
REMARK   38  A    between atoms: _97  and  _100
REMARK   39  A    between atoms: _100  and  _101
REMARK   40  A    between atoms: _103  and  _105
REMARK   41  A    between atoms: _105  and  _106
REMARK   42  A    between atoms: _105  and  _108
REMARK   43  A    between atoms: _108  and  _109
REMARK   44  A    between atoms: _112  and  _114
REMARK   45  A    between atoms: _114  and  _115
REMARK   46  A    between atoms: _114  and  _117
REMARK   47  A    between atoms: _117  and  _118
REMARK   48  A    between atoms: _118  and  _119
REMARK   49  A    between atoms: _122  and  _124
REMARK   50  A    between atoms: _124  and  _125
REMARK   51  A    between atoms: _124  and  _127
REMARK   52  A    between atoms: _127  and  _128
REMARK   53  A    between atoms: _134  and  _136
REMARK   54  A    between atoms: _136  and  _137
REMARK   55  A    between atoms: _136  and  _139
REMARK   56  A    between atoms: _139  and  _140
REMARK   57  A    between atoms: _142  and  _144
REMARK   58  A    between atoms: _144  and  _145
REMARK   59  A    between atoms: _144  and  _147
REMARK   60  A    between atoms: _147  and  _148
REMARK   61  A    between atoms: _148  and  _149
REMARK   62  A    between atoms: _154  and  _156
REMARK   63  A    between atoms: _156  and  _157
REMARK   64  A    between atoms: _156  and  _159
REMARK   65  A    between atoms: _159  and  _160
REMARK   66  A    between atoms: _165  and  _166
REMARK   67  A    between atoms: _168  and  _170
REMARK   68  A    between atoms: _170  and  _171
REMARK   69  A    between atoms: _170  and  _173
REMARK   70  A    between atoms: _173  and  _174
REMARK   71  A    between atoms: _184  and  _186
REMARK   72  A    between atoms: _186  and  _187
REMARK   73  A    between atoms: _186  and  _189
REMARK   74  A    between atoms: _189  and  _190
REMARK   75  A    between atoms: _193  and  _195
REMARK   76  A    between atoms: _195  and  _196
REMARK   77  A    between atoms: _195  and  _198
REMARK   78  A    between atoms: _198  and  _199
REMARK   79  A    between atoms: _202  and  _204
REMARK   80  A    between atoms: _204  and  _205
REMARK   81  A    between atoms: _204  and  _207
REMARK   82  A    between atoms: _207  and  _208
REMARK   83  A    between atoms: _210  and  _212
REMARK   84  A    between atoms: _212  and  _213
REMARK   85  A    between atoms: _212  and  _215
REMARK   86  A    between atoms: _215  and  _216
REMARK   87  A    between atoms: _216  and  _217
REMARK   88  A    between atoms: _222  and  _224
REMARK   89  A    between atoms: _224  and  _225
REMARK   90  A    between atoms: _224  and  _227
REMARK   91  A    between atoms: _227  and  _228
REMARK   92  A    between atoms: _233  and  _234
REMARK   93  A    between atoms: _236  and  _238
REMARK   94  A    between atoms: _238  and  _239
REMARK   95  A    between atoms: _238  and  _241
REMARK   96  A    between atoms: _243  and  _245
REMARK   97  A    between atoms: _245  and  _246
REMARK   98  A    between atoms: _245  and  _248
REMARK   99  A    between atoms: _248  and  _249
REMARK  100  A    between atoms: _251  and  _253
REMARK  101  A    between atoms: _253  and  _254
REMARK  102  A    between atoms: _253  and  _256
REMARK  103  A    between atoms: _256  and  _257
REMARK  104  A    between atoms: _257  and  _258
REMARK  105  A    between atoms: _258  and  _259
REMARK  106  A    between atoms: _268  and  _270
REMARK  107  A    between atoms: _270  and  _271
REMARK  108  A    between atoms: _270  and  _273
REMARK  109  A    between atoms: _273  and  _274
REMARK  110  A    between atoms: _276  and  _278
REMARK  111  A    between atoms: _278  and  _279
REMARK  112  A    between atoms: _278  and  _281
REMARK  113  A    between atoms: _281  and  _282
REMARK  114  A    between atoms: _282  and  _283
REMARK  115  A    between atoms: _286  and  _288
REMARK  116  A    between atoms: _288  and  _289
REMARK  117  A    between atoms: _288  and  _291
REMARK  118  A    between atoms: _291  and  _292
REMARK  119  A    between atoms: _292  and  _293
REMARK  120  A    between atoms: _293  and  _294
REMARK  121  A    between atoms: _294  and  _295
REMARK  122  A    between atoms: _299  and  _301
REMARK  123  A    between atoms: _301  and  _302
REMARK  124  A    between atoms: _301  and  _304
REMARK  125  A    between atoms: _304  and  _305
REMARK  126  A    between atoms: _305  and  _306
REMARK  127  A    between atoms: _306  and  _307
REMARK  128  A    between atoms: _307  and  _308
REMARK  129  A    between atoms: _313  and  _314
REMARK  130  A    between atoms: _319  and  _321
REMARK  131  A    between atoms: _321  and  _322
REMARK  132  A    between atoms: _321  and  _324
REMARK  133  A    between atoms: _324  and  _325
REMARK  134  A    between atoms: _328  and  _330
REMARK  135  A    between atoms: _330  and  _331
REMARK  136  A    between atoms: _330  and  _333
REMARK  137  A    between atoms: _333  and  _334
REMARK  138  A    between atoms: _340  and  _342
REMARK  139  A    between atoms: _342  and  _343
REMARK  140  A    between atoms: _342  and  _345
REMARK  141  A    between atoms: _345  and  _346
REMARK  142  A    between atoms: _351  and  _352
REMARK  143  A    between atoms: _354  and  _356
REMARK  144  A    between atoms: _356  and  _357
REMARK  145  A    between atoms: _356  and  _359
REMARK  146  A    between atoms: _359  and  _360
REMARK  147  A    between atoms: _365  and  _367
REMARK  148  A    between atoms: _367  and  _368
REMARK  149  A    between atoms: _367  and  _370
REMARK  150  A    between atoms: _370  and  _371
REMARK  151  A    between atoms: _371  and  _372
REMARK  152  A    between atoms: _377  and  _379
REMARK  153  A    between atoms: _379  and  _380
REMARK  154  A    between atoms: _379  and  _382
REMARK  155  A    between atoms: _382  and  _383
REMARK  156  A    between atoms: _386  and  _388
REMARK  157  A    between atoms: _388  and  _389
REMARK  158  A    between atoms: _388  and  _391
REMARK  159  A    between atoms: _391  and  _392
REMARK  160  A    between atoms: _392  and  _393
REMARK  161  A    between atoms: _393  and  _394
REMARK  162  A    between atoms: _394  and  _395
REMARK  163  A    between atoms: _399  and  _401
REMARK  164  A    between atoms: _401  and  _402
REMARK  165  A    between atoms: _405  and  _407
REMARK  166  A    between atoms: _407  and  _408
REMARK  167  A    between atoms: _407  and  _410
REMARK  168  A    between atoms: _410  and  _411
REMARK  169  A    between atoms: _417  and  _419
REMARK  170  A    between atoms: _419  and  _420
REMARK  171  A    between atoms: _419  and  _422
REMARK  172  A    between atoms: _422  and  _423
REMARK  173  A    between atoms: _426  and  _428
REMARK  174  A    between atoms: _428  and  _429
REMARK  175  A    between atoms: _428  and  _431
REMARK  176  A    between atoms: _431  and  _432
REMARK  177  A    between atoms: _435  and  _437
REMARK  178  A    between atoms: _437  and  _438
REMARK  179  A    between atoms: _437  and  _440
REMARK  180  A    between atoms: _443  and  _445
REMARK  181  A    between atoms: _445  and  _446
REMARK  182  A    between atoms: _445  and  _448
REMARK  183  A    between atoms: _448  and  _449
REMARK  184  A    between atoms: _449  and  _450
REMARK  185  A    between atoms: _450  and  _451
REMARK  186  A    between atoms: _451  and  _452
REMARK  187  A    between atoms: _456  and  _458
REMARK  188  A    between atoms: _458  and  _459
REMARK  189  A    between atoms: _458  and  _461
REMARK  190  A    between atoms: _461  and  _462
REMARK  191  A    between atoms: _462  and  _463
REMARK  192  A    between atoms: _468  and  _470
REMARK  193  A    between atoms: _470  and  _471
REMARK  194  A    between atoms: _470  and  _473
REMARK  195  A    between atoms: _473  and  _474
REMARK  196  A    between atoms: _480  and  _482
REMARK  197  A    between atoms: _482  and  _483
REMARK  198  A    between atoms: _482  and  _485
REMARK  199  A    between atoms: _485  and  _486
REMARK  200  A    between atoms: _490  and  _491
REMARK  201  A    between atoms: _497  and  _498
REMARK  202  A    between atoms: _503  and  _505
REMARK  203  A    between atoms: _505  and  _506
REMARK  204  A    between atoms: _505  and  _508
REMARK  205  A    between atoms: _508  and  _509
REMARK  206  A    between atoms: _512  and  _514
REMARK  207  A    between atoms: _514  and  _515
REMARK  208  A    between atoms: _514  and  _517
REMARK  209  A    between atoms: _517  and  _518
REMARK  210  A    between atoms: _523  and  _525
REMARK  211  A    between atoms: _525  and  _526
REMARK  212  A    between atoms: _525  and  _528
REMARK  213  A    between atoms: _528  and  _529
REMARK  214  A    between atoms: _532  and  _534
REMARK  215  A    between atoms: _534  and  _535
REMARK  216  A    between atoms: _534  and  _537
REMARK  217  A    between atoms: _537  and  _538
REMARK  218  A    between atoms: _538  and  _539
REMARK  219  A    between atoms: _542  and  _544
REMARK  220  A    between atoms: _544  and  _545
REMARK  221  A    between atoms: _547  and  _549
REMARK  222  A    between atoms: _549  and  _550
REMARK  223  A    between atoms: _549  and  _552
REMARK  224  A    between atoms: _552  and  _553
REMARK  225  A    between atoms: _556  and  _558
REMARK  226  A    between atoms: _558  and  _559
REMARK  227  A    between atoms: _562  and  _564
REMARK  228  A    between atoms: _564  and  _565
REMARK  229  A    between atoms: _564  and  _567
REMARK  230  A    between atoms: _567  and  _568
REMARK  231  A    between atoms: _571  and  _572
REMARK  232  A    between atoms: _577  and  _579
REMARK  233  A    between atoms: _579  and  _580
REMARK  234  A    between atoms: _579  and  _582
REMARK  235  A    between atoms: _582  and  _583
REMARK  236  A    between atoms: _589  and  _591
REMARK  237  A    between atoms: _591  and  _592
REMARK  238  A    between atoms: _591  and  _594
REMARK  239  A    between atoms: _597  and  _599
REMARK  240  A    between atoms: _599  and  _600
REMARK  241  A    between atoms: _599  and  _602
REMARK  242  A    between atoms: _602  and  _603
REMARK  243  A    between atoms: _603  and  _604
REMARK  244  A    between atoms: _607  and  _609
REMARK  245  A    between atoms: _609  and  _610
REMARK  246  A    between atoms: _609  and  _612
REMARK  247  A    between atoms: _612  and  _613
REMARK                            x       y       z     vdW  Elec       q    Type
REMARK                         _______ _______ _______ _____ _____    ______ ____
ROOT
ATOM      1  CA  LEU A   1      56.736  41.877  30.691  0.00  0.00    +0.133 C 
ENDROOT
BRANCH   1   2
ATOM      2  N   LEU A   1      56.367  42.716  29.553  0.00  0.00    -0.239 NA
ATOM      3  H   LEU A   1      56.996  42.768  28.726  0.00  0.00    +0.142 HD
ENDBRANCH   1   2
BRANCH   1   4
ATOM      4  C   LEU A   1      56.925  42.671  31.987  0.00  0.00    +0.224 C 
ATOM      5  O   LEU A   1      56.900  42.088  33.073  0.00  0.00    -0.287 OA
ENDBRANCH   1   4
BRANCH   1   6
ATOM      6  CB  LEU A   1      58.003  41.067  30.379  0.00  0.00    +0.025 C 
BRANCH   6   7
ATOM      7  CG  LEU A   1      57.742  39.856  29.477  0.00  0.00    +0.002 C 
ATOM      8  CD2 LEU A   1      57.151  38.737  30.326  0.00  0.00    +0.000 C 
ATOM      9  CD1 LEU A   1      59.013  39.409  28.772  0.00  0.00    +0.000 C 
ENDBRANCH   6   7
ENDBRANCH   1   6
TORSDOF 4
REMARK  Name = ../refined-set-2016/1zhy/1zhy_pocket.pdb
REMARK  247 active torsions:
REMARK  status: ('A' for Active; 'I' for Inactive)
REMARK    1  A    between atoms: _1  and  _3
REMARK    2  A    between atoms: _3  and  _4
REMARK    3  A    between atoms: _3  and  _6
REMARK    4  A    between atoms: _6  and  _7
REMARK    5  A    between atoms: _17  and  _19
REMARK    6  A    between atoms: _19  and  _20
REMARK    7  A    between atoms: _19  and  _22
REMARK    8  A    between atoms: _22  and  _23
REMARK    9  A    between atoms: _29  and  _31
REMARK   10  A    between atoms: _31  and  _32
REMARK   11  A    between atoms: _31  and  _34
REMARK   12  A    between atoms: _34  and  _35
REMARK   13  A    between atoms: _38  and  _40
REMARK   14  A    between atoms: _40  and  _41
REMARK   15  A    between atoms: _40  and  _43
REMARK   16  A    between atoms: _43  and  _44
REMARK   17  A    between atoms: _47  and  _49
REMARK   18  A    between atoms: _49  and  _50
REMARK   19  A    between atoms: _49  and  _52
REMARK   20  A    between atoms: _52  and  _53
REMARK   21  A    between atoms: _55  and  _57
REMARK   22  A    between atoms: _57  and  _58
REMARK   23  A    between atoms: _57  and  _60
REMARK   24  A    between atoms: _60  and  _61
REMARK   25  A    between atoms: _64  and  _66
REMARK   26  A    between atoms: _66  and  _67
REMARK   27  A    between atoms: _71  and  _72
REMARK   28  A    between atoms: _77  and  _79
REMARK   29  A    between atoms: _79  and  _80
REMARK   30  A    between atoms: _79  and  _82
REMARK   31  A    between atoms: _82  and  _83
REMARK   32  A    between atoms: _86  and  _88
REMARK   33  A    between atoms: _88  and  _89
REMARK   34  A    between atoms: _88  and  _91
REMARK   35  A    between atoms: _91  and  _92
REMARK   36  A    between atoms: _95  and  _97
REMARK   37  A    between atoms: _97  and  _98
REMARK   38  A    between atoms: _97  and  _100
REMARK   39  A    between atoms: _100  and  _101
REMARK   40  A    between atoms: _103  and  _105
REMARK   41  A    between atoms: _105  and  _106
REMARK   42  A    between atoms: _105  and  _108
REMARK   43  A    between atoms: _108  and  _109
REMARK   44  A    between atoms: _112  and  _114
REMARK   45  A    between atoms: _114  and  _115
REMARK   46  A    between atoms: _114  and  _117
REMARK   47  A    between atoms: _117  and  _118
REMARK   48  A    between atoms: _118  and  _119
REMARK   49  A    between atoms: _122  and  _124
REMARK   50  A    between atoms: _124  and  _125
REMARK   51  A    between atoms: _124  and  _127
REMARK   52  A    between atoms: _127  and  _128
REMARK   53  A    between atoms: _134  and  _136
REMARK   54  A    between atoms: _136  and  _137
REMARK   55  A    between atoms: _136  and  _139
REMARK   56  A    between atoms: _139  and  _140
REMARK   57  A    between atoms: _142  and  _144
REMARK   58  A    between atoms: _144  and  _145
REMARK   59  A    between atoms: _144  and  _147
REMARK   60  A    between atoms: _147  and  _148
REMARK   61  A    between atoms: _148  and  _149
REMARK   62  A    between atoms: _154  and  _156
REMARK   63  A    between atoms: _156  and  _157
REMARK   64  A    between atoms: _156  and  _159
REMARK   65  A    between atoms: _159  and  _160
REMARK   66  A    between atoms: _165  and  _166
REMARK   67  A    between atoms: _168  and  _170
REMARK   68  A    between atoms: _170  and  _171
REMARK   69  A    between atoms: _170  and  _173
REMARK   70  A    between atoms: _173  and  _174
REMARK   71  A    between atoms: _184  and  _186
REMARK   72  A    between atoms: _186  and  _187
REMARK   73  A    between atoms: _186  and  _189
REMARK   74  A    between atoms: _189  and  _190
REMARK   75  A    between atoms: _193  and  _195
REMARK   76  A    between atoms: _195  and  _196
REMARK   77  A    between atoms: _195  and  _198
REMARK   78  A    between atoms: _198  and  _199
REMARK   79  A    between atoms: _202  and  _204
REMARK   80  A    between atoms: _204  and  _205
REMARK   81  A    between atoms: _204  and  _207
REMARK   82  A    between atoms: _207  and  _208
REMARK   83  A    between atoms: _210  and  _212
REMARK   84  A    between atoms: _212  and  _213
REMARK   85  A    between atoms: _212  and  _215
REMARK   86  A    between atoms: _215  and  _216
REMARK   87  A    between atoms: _216  and  _217
REMARK   88  A    between atoms: _222  and  _224
REMARK   89  A    between atoms: _224  and  _225
REMARK   90  A    between atoms: _224  and  _227
REMARK   91  A    between atoms: _227  and  _228
REMARK   92  A    between atoms: _233  and  _234
REMARK   93  A    between atoms: _236  and  _238
REMARK   94  A    between atoms: _238  and  _239
REMARK   95  A    between atoms: _238  and  _241
REMARK   96  A    between atoms: _243  and  _245
REMARK   97  A    between atoms: _245  and  _246
REMARK   98  A    between atoms: _245  and  _248
REMARK   99  A    between atoms: _248  and  _249
REMARK  100  A    between atoms: _251  and  _253
REMARK  101  A    between atoms: _253  and  _254
REMARK  102  A    between atoms: _253  and  _256
REMARK  103  A    between atoms: _256  and  _257
REMARK  104  A    between atoms: _257  and  _258
REMARK  105  A    between atoms: _258  and  _259
REMARK  106  A    between atoms: _268  and  _270
REMARK  107  A    between atoms: _270  and  _271
REMARK  108  A    between atoms: _270  and  _273
REMARK  109  A    between atoms: _273  and  _274
REMARK  110  A    between atoms: _276  and  _278
REMARK  111  A    between atoms: _278  and  _279
REMARK  112  A    between atoms: _278  and  _281
REMARK  113  A    between atoms: _281  and  _282
REMARK  114  A    between atoms: _282  and  _283
REMARK  115  A    between atoms: _286  and  _288
REMARK  116  A    between atoms: _288  and  _289
REMARK  117  A    between atoms: _288  and  _291
REMARK  118  A    between atoms: _291  and  _292
REMARK  119  A    between atoms: _292  and  _293
REMARK  120  A    between atoms: _293  and  _294
REMARK  121  A    between atoms: _294  and  _295
REMARK  122  A    between atoms: _299  and  _301
REMARK  123  A    between atoms: _301  and  _302
REMARK  124  A    between atoms: _301  and  _304
REMARK  125  A    between atoms: _304  and  _305
REMARK  126  A    between atoms: _305  and  _306
REMARK  127  A    between atoms: _306  and  _307
REMARK  128  A    between atoms: _307  and  _308
REMARK  129  A    between atoms: _313  and  _314
REMARK  130  A    between atoms: _319  and  _321
REMARK  131  A    between atoms: _321  and  _322
REMARK  132  A    between atoms: _321  and  _324
REMARK  133  A    between atoms: _324  and  _325
REMARK  134  A    between atoms: _328  and  _330
REMARK  135  A    between atoms: _330  and  _331
REMARK  136  A    between atoms: _330  and  _333
REMARK  137  A    between atoms: _333  and  _334
REMARK  138  A    between atoms: _340  and  _342
REMARK  139  A    between atoms: _342  and  _343
REMARK  140  A    between atoms: _342  and  _345
REMARK  141  A    between atoms: _345  and  _346
REMARK  142  A    between atoms: _351  and  _352
REMARK  143  A    between atoms: _354  and  _356
REMARK  144  A    between atoms: _356  and  _357
REMARK  145  A    between atoms: _356  and  _359
REMARK  146  A    between atoms: _359  and  _360
REMARK  147  A    between atoms: _365  and  _367
REMARK  148  A    between atoms: _367  and  _368
REMARK  149  A    between atoms: _367  and  _370
REMARK  150  A    between atoms: _370  and  _371
REMARK  151  A    between atoms: _371  and  _372
REMARK  152  A    between atoms: _377  and  _379
REMARK  153  A    between atoms: _379  and  _380
REMARK  154  A    between atoms: _379  and  _382
REMARK  155  A    between atoms: _382  and  _383
REMARK  156  A    between atoms: _386  and  _388
REMARK  157  A    between atoms: _388  and  _389
REMARK  158  A    between atoms: _388  and  _391
REMARK  159  A    between atoms: _391  and  _392
REMARK  160  A    between atoms: _392  and  _393
REMARK  161  A    between atoms: _393  and  _394
REMARK  162  A    between atoms: _394  and  _395
REMARK  163  A    between atoms: _399  and  _401
REMARK  164  A    between atoms: _401  and  _402
REMARK  165  A    between atoms: _405  and  _407
REMARK  166  A    between atoms: _407  and  _408
REMARK  167  A    between atoms: _407  and  _410
REMARK  168  A    between atoms: _410  and  _411
REMARK  169  A    between atoms: _417  and  _419
REMARK  170  A    between atoms: _419  and  _420
REMARK  171  A    between atoms: _419  and  _422
REMARK  172  A    between atoms: _422  and  _423
REMARK  173  A    between atoms: _426  and  _428
REMARK  174  A    between atoms: _428  and  _429
REMARK  175  A    between atoms: _428  and  _431
REMARK  176  A    between atoms: _431  and  _432
REMARK  177  A    between atoms: _435  and  _437
REMARK  178  A    between atoms: _437  and  _438
REMARK  179  A    between atoms: _437  and  _440
REMARK  180  A    between atoms: _443  and  _445
REMARK  181  A    between atoms: _445  and  _446
REMARK  182  A    between atoms: _445  and  _448
REMARK  183  A    between atoms: _448  and  _449
REMARK  184  A    between atoms: _449  and  _450
REMARK  185  A    between atoms: _450  and  _451
REMARK  186  A    between atoms: _451  and  _452
REMARK  187  A    between atoms: _456  and  _458
REMARK  188  A    between atoms: _458  and  _459
REMARK  189  A    between atoms: _458  and  _461
REMARK  190  A    between atoms: _461  and  _462
REMARK  191  A    between atoms: _462  and  _463
REMARK  192  A    between atoms: _468  and  _470
REMARK  193  A    between atoms: _470  and  _471
REMARK  194  A    between atoms: _470  and  _473
REMARK  195  A    between atoms: _473  and  _474
REMARK  196  A    between atoms: _480  and  _482
REMARK  197  A    between atoms: _482  and  _483
REMARK  198  A    between atoms: _482  and  _485
REMARK  199  A    between atoms: _485  and  _486
REMARK  200  A    between atoms: _490  and  _491
REMARK  201  A    between atoms: _497  and  _498
REMARK  202  A    between atoms: _503  and  _505
REMARK  203  A    between atoms: _505  and  _506
REMARK  204  A    between atoms: _505  and  _508
REMARK  205  A    between atoms: _508  and  _509
REMARK  206  A    between atoms: _512  and  _514
REMARK  207  A    between atoms: _514  and  _515
REMARK  208  A    between atoms: _514  and  _517
REMARK  209  A    between atoms: _517  and  _518
REMARK  210  A    between atoms: _523  and  _525
REMARK  211  A    between atoms: _525  and  _526
REMARK  212  A    between atoms: _525  and  _528
REMARK  213  A    between atoms: _528  and  _529
REMARK  214  A    between atoms: _532  and  _534
REMARK  215  A    between atoms: _534  and  _535
REMARK  216  A    between atoms: _534  and  _537
REMARK  217  A    between atoms: _537  and  _538
REMARK  218  A    between atoms: _538  and  _539
REMARK  219  A    between atoms: _542  and  _544
REMARK  220  A    between atoms: _544  and  _545
REMARK  221  A    between atoms: _547  and  _549
REMARK  222  A    between atoms: _549  and  _550
REMARK  223  A    between atoms: _549  and  _552
REMARK  224  A    between atoms: _552  and  _553
REMARK  225  A    between atoms: _556  and  _558
REMARK  226  A    between atoms: _558  and  _559
REMARK  227  A    between atoms: _562  and  _564
REMARK  228  A    between atoms: _564  and  _565
REMARK  229  A    between atoms: _564  and  _567
REMARK  230  A    between atoms: _567  and  _568
REMARK  231  A    between atoms: _571  and  _572
REMARK  232  A    between atoms: _577  and  _579
REMARK  233  A    between atoms: _579  and  _580
REMARK  234  A    between atoms: _579  and  _582
REMARK  235  A    between atoms: _582  and  _583
REMARK  236  A    between atoms: _589  and  _591
REMARK  237  A    between atoms: _591  and  _592
REMARK  238  A    between atoms: _591  and  _594
REMARK  239  A    between atoms: _597  and  _599
REMARK  240  A    between atoms: _599  and  _600
REMARK  241  A    between atoms: _599  and  _602
REMARK  242  A    between atoms: _602  and  _603
REMARK  243  A    between atoms: _603  and  _604
REMARK  244  A    between atoms: _607  and  _609
REMARK  245  A    between atoms: _609  and  _610
REMARK  246  A    between atoms: _609  and  _612
REMARK  247  A    between atoms: _612  and  _613
REMARK                            x       y       z     vdW  Elec       q    Type
REMARK                         _______ _______ _______ _____ _____    ______ ____
ROOT
ATOM      1  CA  GLN A   4      51.492  42.692  39.266  0.00  0.00    +0.149 C 
ENDROOT
BRANCH   1   4
ATOM      2  C   SER A   3      53.796  41.953  39.184  0.00  0.00    +0.243 C 
ATOM      3  O   SER A   3      53.731  41.542  40.344  0.00  0.00    -0.273 OA
ATOM      4  N   GLN A   4      52.761  42.514  38.567  0.00  0.00    -0.297 N 
ATOM      5  H   GLN A   4      52.856  42.828  37.580  0.00  0.00    +0.150 HD
BRANCH   2   6
ATOM      6  CA  SER A   3      55.095  41.827  38.386  0.00  0.00    +0.178 C 
BRANCH   6   9
ATOM      7  C   PHE A   2      54.074  40.743  36.468  0.00  0.00    +0.241 C 
ATOM      8  O   PHE A   2      53.574  39.868  37.172  0.00  0.00    -0.273 OA
ATOM      9  N   SER A   3      54.812  41.730  36.961  0.00  0.00    -0.295 N 
ATOM     10  H   SER A   3      55.196  42.449  36.316  0.00  0.00    +0.150 HD
BRANCH   7  11
ATOM     11  CA  PHE A   2      53.842  40.753  34.962  0.00  0.00    +0.153 C 
BRANCH  11  14
ATOM     12  C   GLU A   1      53.309  43.096  34.648  0.00  0.00    +0.238 C 
ATOM     13  O   GLU A   1      52.452  43.041  35.530  0.00  0.00    -0.274 OA
ATOM     14  N   PHE A   2      54.054  42.046  34.313  0.00  0.00    -0.297 N 
ATOM     15  H   PHE A   2      54.791  42.145  33.586  0.00  0.00    +0.150 HD
BRANCH  12  16
ATOM     16  CA  GLU A   1      53.548  44.398  33.880  0.00  0.00    +0.145 C 
BRANCH  16  17
ATOM     17  N   GLU A   1      54.850  44.463  33.220  0.00  0.00    -0.238 NA
ATOM     18  H   GLU A   1      54.918  44.284  32.198  0.00  0.00    +0.142 HD
ENDBRANCH  16  17
BRANCH  16  19
ATOM     19  CB  GLU A   1      52.416  44.550  32.859  0.00  0.00    +0.038 C 
BRANCH  19  20
ATOM     20  CG  GLU A   1      52.183  45.960  32.369  0.00  0.00    +0.116 C 
BRANCH  20  21
ATOM     21  CD  GLU A   1      50.773  46.142  31.821  0.00  0.00    +0.365 C 
ATOM     22  OE2 GLU A   1      49.819  45.629  32.453  0.00  0.00    -0.246 OA
ATOM     23  OE1 GLU A   1      50.609  46.804  30.773  0.00  0.00    -0.246 OA
ENDBRANCH  20  21
ENDBRANCH  19  20
ENDBRANCH  16  19
ENDBRANCH  12  16
ENDBRANCH  11  14
BRANCH  11  24
ATOM     24  CB  PHE A   2      54.690  39.673  34.278  0.00  0.00    +0.055 C 
BRANCH  24  25
ATOM     25  CG  PHE A   2      54.134  39.210  32.949  0.00  0.00    -0.020 A 
ATOM     26  CD2 PHE A   2      54.104  37.855  32.632  0.00  0.00    -0.004 A 
ATOM     27  CE2 PHE A   2      53.614  37.414  31.404  0.00  0.00    -0.000 A 
ATOM     28  CZ  PHE A   2      53.145  38.335  30.473  0.00  0.00    -0.000 A 
ATOM     29  CE1 PHE A   2      53.166  39.698  30.777  0.00  0.00    -0.000 A 
ATOM     30  CD1 PHE A   2      53.661  40.127  32.011  0.00  0.00    -0.004 A 
ENDBRANCH  24  25
ENDBRANCH  11  24
ENDBRANCH   7  11
ENDBRANCH   6   9
BRANCH   6  31
ATOM     31  CB  SER A   3      55.990  43.042  38.662  0.00  0.00    +0.166 C 
BRANCH  31  32
ATOM     32  OG  SER A   3      57.210  42.970  37.927  0.00  0.00    -0.380 OA
ATOM     33  H   SER A   3      57.762  43.767  38.128  0.00  0.00    +0.211 HD
ENDBRANCH  31  32
ENDBRANCH   6  31
ENDBRANCH   2   6
ENDBRANCH   1   4
BRANCH   1  34
ATOM     34  C   GLN A   4      50.833  41.368  39.649  0.00  0.00    +0.241 C 
ATOM     35  O   GLN A   4      49.993  41.324  40.553  0.00  0.00    -0.273 OA
ATOM     36  N   TYR A   5      51.231  40.291  38.978  0.00  0.00    -0.297 N 
ATOM     37  H   TYR A   5      51.973  40.384  38.255  0.00  0.00    +0.150 HD
BRANCH  36  38
ATOM     38  CA  TYR A   5      50.642  38.979  39.240  0.00  0.00    +0.153 C 
BRANCH  38  39
ATOM     39  C   TYR A   5      51.002  38.391  40.594  0.00  0.00    +0.241 C 
ATOM     40  N   TRP A   6      51.862  39.076  41.335  0.00  0.00    -0.298 N 
ATOM     41  H   TRP A   6      52.270  39.960  40.970  0.00  0.00    +0.150 HD
ATOM     42  O   TYR A   5      50.500  37.331  40.965  0.00  0.00    -0.273 OA
BRANCH  40  43
ATOM     43  CA  TRP A   6      52.237  38.595  42.658  0.00  0.00    +0.141 C 
BRANCH  43  44
ATOM     44  C   TRP A   6      51.240  39.000  43.748  0.00  0.00    +0.227 C 
ATOM     45  O   TRP A   6      51.338  38.509  44.873  0.00  0.00    -0.286 OA
ENDBRANCH  43  44
BRANCH  43  46
ATOM     46  CB  TRP A   6      53.628  39.112  43.043  0.00  0.00    +0.056 C 
BRANCH  46  47
ATOM     47  CG  TRP A   6      54.757  38.385  42.374  0.00  0.00    -0.002 A 
ATOM     48  CD2 TRP A   6      55.380  37.176  42.823  0.00  0.00    +0.013 A 
ATOM     49  CE3 TRP A   6      55.171  36.322  43.915  0.00  0.00    +0.001 A 
ATOM     50  CZ3 TRP A   6      55.987  35.200  44.054  0.00  0.00    +0.000 A 
ATOM     51  CH2 TRP A   6      57.005  34.921  43.122  0.00  0.00    +0.001 A 
ATOM     52  CZ2 TRP A   6      57.232  35.737  42.041  0.00  0.00    +0.017 A 
ATOM     53  CE2 TRP A   6      56.409  36.868  41.901  0.00  0.00    +0.056 A 
ATOM     54  NE1 TRP A   6      56.402  37.844  40.939  0.00  0.00    -0.352 N 
ATOM     55  HE1 TRP A   6      57.044  37.892  40.123  0.00  0.00    +0.166 HD
ATOM     56  CD1 TRP A   6      55.405  38.752  41.229  0.00  0.00    +0.068 A 
ENDBRANCH  46  47
ENDBRANCH  43  46
ENDBRANCH  40  43
ENDBRANCH  38  39
BRANCH  38  57
ATOM     57  CB  TYR A   5      51.021  37.982  38.138  0.00  0.00    +0.055 C 
BRANCH  57  58
ATOM     58  CG  TYR A   5      50.587  38.378  36.744  0.00  0.00    -0.020 A 
ATOM     59  CD2 TYR A   5      49.315  38.904  36.504  0.00  0.00    -0.001 A 
ATOM     60  CE2 TYR A   5      48.899  39.217  35.210  0.00  0.00    +0.036 A 
ATOM     61  CZ  TYR A   5      49.759  39.002  34.149  0.00  0.00    +0.134 A 
ATOM     62  CE1 TYR A   5      51.027  38.488  34.362  0.00  0.00    +0.036 A 
ATOM     63  CD1 TYR A   5      51.434  38.181  35.655  0.00  0.00    -0.001 A 
BRANCH  61  64
ATOM     64  OH  TYR A   5      49.340  39.267  32.863  0.00  0.00    -0.506 OA
ATOM     65  HH  TYR A   5      48.418  39.627  32.885  0.00  0.00    +0.292 HD
ENDBRANCH  61  64
ENDBRANCH  57  58
ENDBRANCH  38  57
ENDBRANCH  36  38
ENDBRANCH   1  34
BRANCH   1  66
ATOM     66  CB  GLN A   4      50.526  43.525  38.412  0.00  0.00    +0.039 C 
BRANCH  66  67
ATOM     67  CG  GLN A   4      49.879  42.785  37.249  0.00  0.00    +0.087 C 
BRANCH  67  68
ATOM     68  CD  GLN A   4      49.276  43.749  36.232  0.00  0.00    +0.219 C 
ATOM     69  NE2 GLN A   4      48.082  44.235  36.515  0.00  0.00    -0.329 N 
ATOM     70 HE21 GLN A   4      47.595  43.943  37.386  0.00  0.00    +0.145 HD
ATOM     71 HE22 GLN A   4      47.628  44.910  35.867  0.00  0.00    +0.145 HD
ATOM     72  OE1 GLN A   4      49.893  44.063  35.214  0.00  0.00    -0.275 OA
ENDBRANCH  67  68
ENDBRANCH  66  67
ENDBRANCH   1  66
TORSDOF 27
REMARK  Name = ../refined-set-2016/1zhy/1zhy_pocket.pdb
REMARK  247 active torsions:
REMARK  status: ('A' for Active; 'I' for Inactive)
REMARK    1  A    between atoms: _1  and  _3
REMARK    2  A    between atoms: _3  and  _4
REMARK    3  A    between atoms: _3  and  _6
REMARK    4  A    between atoms: _6  and  _7
REMARK    5  A    between atoms: _17  and  _19
REMARK    6  A    between atoms: _19  and  _20
REMARK    7  A    between atoms: _19  and  _22
REMARK    8  A    between atoms: _22  and  _23
REMARK    9  A    between atoms: _29  and  _31
REMARK   10  A    between atoms: _31  and  _32
REMARK   11  A    between atoms: _31  and  _34
REMARK   12  A    between atoms: _34  and  _35
REMARK   13  A    between atoms: _38  and  _40
REMARK   14  A    between atoms: _40  and  _41
REMARK   15  A    between atoms: _40  and  _43
REMARK   16  A    between atoms: _43  and  _44
REMARK   17  A    between atoms: _47  and  _49
REMARK   18  A    between atoms: _49  and  _50
REMARK   19  A    between atoms: _49  and  _52
REMARK   20  A    between atoms: _52  and  _53
REMARK   21  A    between atoms: _55  and  _57
REMARK   22  A    between atoms: _57  and  _58
REMARK   23  A    between atoms: _57  and  _60
REMARK   24  A    between atoms: _60  and  _61
REMARK   25  A    between atoms: _64  and  _66
REMARK   26  A    between atoms: _66  and  _67
REMARK   27  A    between atoms: _71  and  _72
REMARK   28  A    between atoms: _77  and  _79
REMARK   29  A    between atoms: _79  and  _80
REMARK   30  A    between atoms: _79  and  _82
REMARK   31  A    between atoms: _82  and  _83
REMARK   32  A    between atoms: _86  and  _88
REMARK   33  A    between atoms: _88  and  _89
REMARK   34  A    between atoms: _88  and  _91
REMARK   35  A    between atoms: _91  and  _92
REMARK   36  A    between atoms: _95  and  _97
REMARK   37  A    between atoms: _97  and  _98
REMARK   38  A    between atoms: _97  and  _100
REMARK   39  A    between atoms: _100  and  _101
REMARK   40  A    between atoms: _103  and  _105
REMARK   41  A    between atoms: _105  and  _106
REMARK   42  A    between atoms: _105  and  _108
REMARK   43  A    between atoms: _108  and  _109
REMARK   44  A    between atoms: _112  and  _114
REMARK   45  A    between atoms: _114  and  _115
REMARK   46  A    between atoms: _114  and  _117
REMARK   47  A    between atoms: _117  and  _118
REMARK   48  A    between atoms: _118  and  _119
REMARK   49  A    between atoms: _122  and  _124
REMARK   50  A    between atoms: _124  and  _125
REMARK   51  A    between atoms: _124  and  _127
REMARK   52  A    between atoms: _127  and  _128
REMARK   53  A    between atoms: _134  and  _136
REMARK   54  A    between atoms: _136  and  _137
REMARK   55  A    between atoms: _136  and  _139
REMARK   56  A    between atoms: _139  and  _140
REMARK   57  A    between atoms: _142  and  _144
REMARK   58  A    between atoms: _144  and  _145
REMARK   59  A    between atoms: _144  and  _147
REMARK   60  A    between atoms: _147  and  _148
REMARK   61  A    between atoms: _148  and  _149
REMARK   62  A    between atoms: _154  and  _156
REMARK   63  A    between atoms: _156  and  _157
REMARK   64  A    between atoms: _156  and  _159
REMARK   65  A    between atoms: _159  and  _160
REMARK   66  A    between atoms: _165  and  _166
REMARK   67  A    between atoms: _168  and  _170
REMARK   68  A    between atoms: _170  and  _171
REMARK   69  A    between atoms: _170  and  _173
REMARK   70  A    between atoms: _173  and  _174
REMARK   71  A    between atoms: _184  and  _186
REMARK   72  A    between atoms: _186  and  _187
REMARK   73  A    between atoms: _186  and  _189
REMARK   74  A    between atoms: _189  and  _190
REMARK   75  A    between atoms: _193  and  _195
REMARK   76  A    between atoms: _195  and  _196
REMARK   77  A    between atoms: _195  and  _198
REMARK   78  A    between atoms: _198  and  _199
REMARK   79  A    between atoms: _202  and  _204
REMARK   80  A    between atoms: _204  and  _205
REMARK   81  A    between atoms: _204  and  _207
REMARK   82  A    between atoms: _207  and  _208
REMARK   83  A    between atoms: _210  and  _212
REMARK   84  A    between atoms: _212  and  _213
REMARK   85  A    between atoms: _212  and  _215
REMARK   86  A    between atoms: _215  and  _216
REMARK   87  A    between atoms: _216  and  _217
REMARK   88  A    between atoms: _222  and  _224
REMARK   89  A    between atoms: _224  and  _225
REMARK   90  A    between atoms: _224  and  _227
REMARK   91  A    between atoms: _227  and  _228
REMARK   92  A    between atoms: _233  and  _234
REMARK   93  A    between atoms: _236  and  _238
REMARK   94  A    between atoms: _238  and  _239
REMARK   95  A    between atoms: _238  and  _241
REMARK   96  A    between atoms: _243  and  _245
REMARK   97  A    between atoms: _245  and  _246
REMARK   98  A    between atoms: _245  and  _248
REMARK   99  A    between atoms: _248  and  _249
REMARK  100  A    between atoms: _251  and  _253
REMARK  101  A    between atoms: _253  and  _254
REMARK  102  A    between atoms: _253  and  _256
REMARK  103  A    between atoms: _256  and  _257
REMARK  104  A    between atoms: _257  and  _258
REMARK  105  A    between atoms: _258  and  _259
REMARK  106  A    between atoms: _268  and  _270
REMARK  107  A    between atoms: _270  and  _271
REMARK  108  A    between atoms: _270  and  _273
REMARK  109  A    between atoms: _273  and  _274
REMARK  110  A    between atoms: _276  and  _278
REMARK  111  A    between atoms: _278  and  _279
REMARK  112  A    between atoms: _278  and  _281
REMARK  113  A    between atoms: _281  and  _282
REMARK  114  A    between atoms: _282  and  _283
REMARK  115  A    between atoms: _286  and  _288
REMARK  116  A    between atoms: _288  and  _289
REMARK  117  A    between atoms: _288  and  _291
REMARK  118  A    between atoms: _291  and  _292
REMARK  119  A    between atoms: _292  and  _293
REMARK  120  A    between atoms: _293  and  _294
REMARK  121  A    between atoms: _294  and  _295
REMARK  122  A    between atoms: _299  and  _301
REMARK  123  A    between atoms: _301  and  _302
REMARK  124  A    between atoms: _301  and  _304
REMARK  125  A    between atoms: _304  and  _305
REMARK  126  A    between atoms: _305  and  _306
REMARK  127  A    between atoms: _306  and  _307
REMARK  128  A    between atoms: _307  and  _308
REMARK  129  A    between atoms: _313  and  _314
REMARK  130  A    between atoms: _319  and  _321
REMARK  131  A    between atoms: _321  and  _322
REMARK  132  A    between atoms: _321  and  _324
REMARK  133  A    between atoms: _324  and  _325
REMARK  134  A    between atoms: _328  and  _330
REMARK  135  A    between atoms: _330  and  _331
REMARK  136  A    between atoms: _330  and  _333
REMARK  137  A    between atoms: _333  and  _334
REMARK  138  A    between atoms: _340  and  _342
REMARK  139  A    between atoms: _342  and  _343
REMARK  140  A    between atoms: _342  and  _345
REMARK  141  A    between atoms: _345  and  _346
REMARK  142  A    between atoms: _351  and  _352
REMARK  143  A    between atoms: _354  and  _356
REMARK  144  A    between atoms: _356  and  _357
REMARK  145  A    between atoms: _356  and  _359
REMARK  146  A    between atoms: _359  and  _360
REMARK  147  A    between atoms: _365  and  _367
REMARK  148  A    between atoms: _367  and  _368
REMARK  149  A    between atoms: _367  and  _370
REMARK  150  A    between atoms: _370  and  _371
REMARK  151  A    between atoms: _371  and  _372
REMARK  152  A    between atoms: _377  and  _379
REMARK  153  A    between atoms: _379  and  _380
REMARK  154  A    between atoms: _379  and  _382
REMARK  155  A    between atoms: _382  and  _383
REMARK  156  A    between atoms: _386  and  _388
REMARK  157  A    between atoms: _388  and  _389
REMARK  158  A    between atoms: _388  and  _391
REMARK  159  A    between atoms: _391  and  _392
REMARK  160  A    between atoms: _392  and  _393
REMARK  161  A    between atoms: _393  and  _394
REMARK  162  A    between atoms: _394  and  _395
REMARK  163  A    between atoms: _399  and  _401
REMARK  164  A    between atoms: _401  and  _402
REMARK  165  A    between atoms: _405  and  _407
REMARK  166  A    between atoms: _407  and  _408
REMARK  167  A    between atoms: _407  and  _410
REMARK  168  A    between atoms: _410  and  _411
REMARK  169  A    between atoms: _417  and  _419
REMARK  170  A    between atoms: _419  and  _420
REMARK  171  A    between atoms: _419  and  _422
REMARK  172  A    between atoms: _422  and  _423
REMARK  173  A    between atoms: _426  and  _428
REMARK  174  A    between atoms: _428  and  _429
REMARK  175  A    between atoms: _428  and  _431
REMARK  176  A    between atoms: _431  and  _432
REMARK  177  A    between atoms: _435  and  _437
REMARK  178  A    between atoms: _437  and  _438
REMARK  179  A    between atoms: _437  and  _440
REMARK  180  A    between atoms: _443  and  _445
REMARK  181  A    between atoms: _445  and  _446
REMARK  182  A    between atoms: _445  and  _448
REMARK  183  A    between atoms: _448  and  _449
REMARK  184  A    between atoms: _449  and  _450
REMARK  185  A    between atoms: _450  and  _451
REMARK  186  A    between atoms: _451  and  _452
REMARK  187  A    between atoms: _456  and  _458
REMARK  188  A    between atoms: _458  and  _459
REMARK  189  A    between atoms: _458  and  _461
REMARK  190  A    between atoms: _461  and  _462
REMARK  191  A    between atoms: _462  and  _463
REMARK  192  A    between atoms: _468  and  _470
REMARK  193  A    between atoms: _470  and  _471
REMARK  194  A    between atoms: _470  and  _473
REMARK  195  A    between atoms: _473  and  _474
REMARK  196  A    between atoms: _480  and  _482
REMARK  197  A    between atoms: _482  and  _483
REMARK  198  A    between atoms: _482  and  _485
REMARK  199  A    between atoms: _485  and  _486
REMARK  200  A    between atoms: _490  and  _491
REMARK  201  A    between atoms: _497  and  _498
REMARK  202  A    between atoms: _503  and  _505
REMARK  203  A    between atoms: _505  and  _506
REMARK  204  A    between atoms: _505  and  _508
REMARK  205  A    between atoms: _508  and  _509
REMARK  206  A    between atoms: _512  and  _514
REMARK  207  A    between atoms: _514  and  _515
REMARK  208  A    between atoms: _514  and  _517
REMARK  209  A    between atoms: _517  and  _518
REMARK  210  A    between atoms: _523  and  _525
REMARK  211  A    between atoms: _525  and  _526
REMARK  212  A    between atoms: _525  and  _528
REMARK  213  A    between atoms: _528  and  _529
REMARK  214  A    between atoms: _532  and  _534
REMARK  215  A    between atoms: _534  and  _535
REMARK  216  A    between atoms: _534  and  _537
REMARK  217  A    between atoms: _537  and  _538
REMARK  218  A    between atoms: _538  and  _539
REMARK  219  A    between atoms: _542  and  _544
REMARK  220  A    between atoms: _544  and  _545
REMARK  221  A    between atoms: _547  and  _549
REMARK  222  A    between atoms: _549  and  _550
REMARK  223  A    between atoms: _549  and  _552
REMARK  224  A    between atoms: _552  and  _553
REMARK  225  A    between atoms: _556  and  _558
REMARK  226  A    between atoms: _558  and  _559
REMARK  227  A    between atoms: _562  and  _564
REMARK  228  A    between atoms: _564  and  _565
REMARK  229  A    between atoms: _564  and  _567
REMARK  230  A    between atoms: _567  and  _568
REMARK  231  A    between atoms: _571  and  _572
REMARK  232  A    between atoms: _577  and  _579
REMARK  233  A    between atoms: _579  and  _580
REMARK  234  A    between atoms: _579  and  _582
REMARK  235  A    between atoms: _582  and  _583
REMARK  236  A    between atoms: _589  and  _591
REMARK  237  A    between atoms: _591  and  _592
REMARK  238  A    between atoms: _591  and  _594
REMARK  239  A    between atoms: _597  and  _599
REMARK  240  A    between atoms: _599  and  _600
REMARK  241  A    between atoms: _599  and  _602
REMARK  242  A    between atoms: _602  and  _603
REMARK  243  A    between atoms: _603  and  _604
REMARK  244  A    between atoms: _607  and  _609
REMARK  245  A    between atoms: _609  and  _610
REMARK  246  A    between atoms: _609  and  _612
REMARK  247  A    between atoms: _612  and  _613
REMARK                            x       y       z     vdW  Elec       q    Type
REMARK                         _______ _______ _______ _____ _____    ______ ____
ROOT
ATOM      1  C   THR A   1      49.486  33.141  40.992  0.00  0.00    +0.241 C 
ATOM      2  N   LEU A   2      49.526  31.817  41.057  0.00  0.00    -0.298 N 
ATOM      3  H   LEU A   2      49.384  31.346  41.973  0.00  0.00    +0.150 HD
ATOM      4  O   THR A   1      49.562  33.759  39.931  0.00  0.00    -0.274 OA
ENDROOT
BRANCH   1   5
ATOM      5  CA  THR A   1      49.332  33.886  42.308  0.00  0.00    +0.172 C 
BRANCH   5   6
ATOM      6  N   THR A   1      48.686  33.082  43.348  0.00  0.00    -0.236 NA
ATOM      7  H   THR A   1      49.248  32.675  44.122  0.00  0.00    +0.142 HD
ENDBRANCH   5   6
BRANCH   5   8
ATOM      8  CB  THR A   1      50.774  34.349  42.686  0.00  0.00    +0.135 C 
ATOM      9  CG2 THR A   1      50.792  35.060  44.016  0.00  0.00    +0.034 C 
BRANCH   8  10
ATOM     10  OG1 THR A   1      51.655  33.217  42.716  0.00  0.00    -0.383 OA
ATOM     11  HG1 THR A   1      51.332  32.567  43.389  0.00  0.00    +0.210 HD
ENDBRANCH   8  10
ENDBRANCH   5   8
ENDBRANCH   1   5
BRANCH   2  12
ATOM     12  CA  LEU A   2      49.765  31.010  39.866  0.00  0.00    +0.137 C 
BRANCH  12  13
ATOM     13  C   LEU A   2      48.810  31.232  38.694  0.00  0.00    +0.227 C 
ATOM     14  O   LEU A   2      49.254  31.355  37.553  0.00  0.00    -0.286 OA
ENDBRANCH  12  13
BRANCH  12  15
ATOM     15  CB  LEU A   2      49.847  29.532  40.275  0.00  0.00    +0.028 C 
BRANCH  15  16
ATOM     16  CG  LEU A   2      50.942  29.312  41.340  0.00  0.00    +0.002 C 
ATOM     17  CD2 LEU A   2      50.968  27.858  41.770  0.00  0.00    +0.000 C 
ATOM     18  CD1 LEU A   2      52.306  29.725  40.798  0.00  0.00    +0.000 C 
ENDBRANCH  15  16
ENDBRANCH  12  15
ENDBRANCH   2  12
TORSDOF 8
REMARK  Name = ../refined-set-2016/1zhy/1zhy_pocket.pdb
REMARK  247 active torsions:
REMARK  status: ('A' for Active; 'I' for Inactive)
REMARK    1  A    between atoms: _1  and  _3
REMARK    2  A    between atoms: _3  and  _4
REMARK    3  A    between atoms: _3  and  _6
REMARK    4  A    between atoms: _6  and  _7
REMARK    5  A    between atoms: _17  and  _19
REMARK    6  A    between atoms: _19  and  _20
REMARK    7  A    between atoms: _19  and  _22
REMARK    8  A    between atoms: _22  and  _23
REMARK    9  A    between atoms: _29  and  _31
REMARK   10  A    between atoms: _31  and  _32
REMARK   11  A    between atoms: _31  and  _34
REMARK   12  A    between atoms: _34  and  _35
REMARK   13  A    between atoms: _38  and  _40
REMARK   14  A    between atoms: _40  and  _41
REMARK   15  A    between atoms: _40  and  _43
REMARK   16  A    between atoms: _43  and  _44
REMARK   17  A    between atoms: _47  and  _49
REMARK   18  A    between atoms: _49  and  _50
REMARK   19  A    between atoms: _49  and  _52
REMARK   20  A    between atoms: _52  and  _53
REMARK   21  A    between atoms: _55  and  _57
REMARK   22  A    between atoms: _57  and  _58
REMARK   23  A    between atoms: _57  and  _60
REMARK   24  A    between atoms: _60  and  _61
REMARK   25  A    between atoms: _64  and  _66
REMARK   26  A    between atoms: _66  and  _67
REMARK   27  A    between atoms: _71  and  _72
REMARK   28  A    between atoms: _77  and  _79
REMARK   29  A    between atoms: _79  and  _80
REMARK   30  A    between atoms: _79  and  _82
REMARK   31  A    between atoms: _82  and  _83
REMARK   32  A    between atoms: _86  and  _88
REMARK   33  A    between atoms: _88  and  _89
REMARK   34  A    between atoms: _88  and  _91
REMARK   35  A    between atoms: _91  and  _92
REMARK   36  A    between atoms: _95  and  _97
REMARK   37  A    between atoms: _97  and  _98
REMARK   38  A    between atoms: _97  and  _100
REMARK   39  A    between atoms: _100  and  _101
REMARK   40  A    between atoms: _103  and  _105
REMARK   41  A    between atoms: _105  and  _106
REMARK   42  A    between atoms: _105  and  _108
REMARK   43  A    between atoms: _108  and  _109
REMARK   44  A    between atoms: _112  and  _114
REMARK   45  A    between atoms: _114  and  _115
REMARK   46  A    between atoms: _114  and  _117
REMARK   47  A    between atoms: _117  and  _118
REMARK   48  A    between atoms: _118  and  _119
REMARK   49  A    between atoms: _122  and  _124
REMARK   50  A    between atoms: _124  and  _125
REMARK   51  A    between atoms: _124  and  _127
REMARK   52  A    between atoms: _127  and  _128
REMARK   53  A    between atoms: _134  and  _136
REMARK   54  A    between atoms: _136  and  _137
REMARK   55  A    between atoms: _136  and  _139
REMARK   56  A    between atoms: _139  and  _140
REMARK   57  A    between atoms: _142  and  _144
REMARK   58  A    between atoms: _144  and  _145
REMARK   59  A    between atoms: _144  and  _147
REMARK   60  A    between atoms: _147  and  _148
REMARK   61  A    between atoms: _148  and  _149
REMARK   62  A    between atoms: _154  and  _156
REMARK   63  A    between atoms: _156  and  _157
REMARK   64  A    between atoms: _156  and  _159
REMARK   65  A    between atoms: _159  and  _160
REMARK   66  A    between atoms: _165  and  _166
REMARK   67  A    between atoms: _168  and  _170
REMARK   68  A    between atoms: _170  and  _171
REMARK   69  A    between atoms: _170  and  _173
REMARK   70  A    between atoms: _173  and  _174
REMARK   71  A    between atoms: _184  and  _186
REMARK   72  A    between atoms: _186  and  _187
REMARK   73  A    between atoms: _186  and  _189
REMARK   74  A    between atoms: _189  and  _190
REMARK   75  A    between atoms: _193  and  _195
REMARK   76  A    between atoms: _195  and  _196
REMARK   77  A    between atoms: _195  and  _198
REMARK   78  A    between atoms: _198  and  _199
REMARK   79  A    between atoms: _202  and  _204
REMARK   80  A    between atoms: _204  and  _205
REMARK   81  A    between atoms: _204  and  _207
REMARK   82  A    between atoms: _207  and  _208
REMARK   83  A    between atoms: _210  and  _212
REMARK   84  A    between atoms: _212  and  _213
REMARK   85  A    between atoms: _212  and  _215
REMARK   86  A    between atoms: _215  and  _216
REMARK   87  A    between atoms: _216  and  _217
REMARK   88  A    between atoms: _222  and  _224
REMARK   89  A    between atoms: _224  and  _225
REMARK   90  A    between atoms: _224  and  _227
REMARK   91  A    between atoms: _227  and  _228
REMARK   92  A    between atoms: _233  and  _234
REMARK   93  A    between atoms: _236  and  _238
REMARK   94  A    between atoms: _238  and  _239
REMARK   95  A    between atoms: _238  and  _241
REMARK   96  A    between atoms: _243  and  _245
REMARK   97  A    between atoms: _245  and  _246
REMARK   98  A    between atoms: _245  and  _248
REMARK   99  A    between atoms: _248  and  _249
REMARK  100  A    between atoms: _251  and  _253
REMARK  101  A    between atoms: _253  and  _254
REMARK  102  A    between atoms: _253  and  _256
REMARK  103  A    between atoms: _256  and  _257
REMARK  104  A    between atoms: _257  and  _258
REMARK  105  A    between atoms: _258  and  _259
REMARK  106  A    between atoms: _268  and  _270
REMARK  107  A    between atoms: _270  and  _271
REMARK  108  A    between atoms: _270  and  _273
REMARK  109  A    between atoms: _273  and  _274
REMARK  110  A    between atoms: _276  and  _278
REMARK  111  A    between atoms: _278  and  _279
REMARK  112  A    between atoms: _278  and  _281
REMARK  113  A    between atoms: _281  and  _282
REMARK  114  A    between atoms: _282  and  _283
REMARK  115  A    between atoms: _286  and  _288
REMARK  116  A    between atoms: _288  and  _289
REMARK  117  A    between atoms: _288  and  _291
REMARK  118  A    between atoms: _291  and  _292
REMARK  119  A    between atoms: _292  and  _293
REMARK  120  A    between atoms: _293  and  _294
REMARK  121  A    between atoms: _294  and  _295
REMARK  122  A    between atoms: _299  and  _301
REMARK  123  A    between atoms: _301  and  _302
REMARK  124  A    between atoms: _301  and  _304
REMARK  125  A    between atoms: _304  and  _305
REMARK  126  A    between atoms: _305  and  _306
REMARK  127  A    between atoms: _306  and  _307
REMARK  128  A    between atoms: _307  and  _308
REMARK  129  A    between atoms: _313  and  _314
REMARK  130  A    between atoms: _319  and  _321
REMARK  131  A    between atoms: _321  and  _322
REMARK  132  A    between atoms: _321  and  _324
REMARK  133  A    between atoms: _324  and  _325
REMARK  134  A    between atoms: _328  and  _330
REMARK  135  A    between atoms: _330  and  _331
REMARK  136  A    between atoms: _330  and  _333
REMARK  137  A    between atoms: _333  and  _334
REMARK  138  A    between atoms: _340  and  _342
REMARK  139  A    between atoms: _342  and  _343
REMARK  140  A    between atoms: _342  and  _345
REMARK  141  A    between atoms: _345  and  _346
REMARK  142  A    between atoms: _351  and  _352
REMARK  143  A    between atoms: _354  and  _356
REMARK  144  A    between atoms: _356  and  _357
REMARK  145  A    between atoms: _356  and  _359
REMARK  146  A    between atoms: _359  and  _360
REMARK  147  A    between atoms: _365  and  _367
REMARK  148  A    between atoms: _367  and  _368
REMARK  149  A    between atoms: _367  and  _370
REMARK  150  A    between atoms: _370  and  _371
REMARK  151  A    between atoms: _371  and  _372
REMARK  152  A    between atoms: _377  and  _379
REMARK  153  A    between atoms: _379  and  _380
REMARK  154  A    between atoms: _379  and  _382
REMARK  155  A    between atoms: _382  and  _383
REMARK  156  A    between atoms: _386  and  _388
REMARK  157  A    between atoms: _388  and  _389
REMARK  158  A    between atoms: _388  and  _391
REMARK  159  A    between atoms: _391  and  _392
REMARK  160  A    between atoms: _392  and  _393
REMARK  161  A    between atoms: _393  and  _394
REMARK  162  A    between atoms: _394  and  _395
REMARK  163  A    between atoms: _399  and  _401
REMARK  164  A    between atoms: _401  and  _402
REMARK  165  A    between atoms: _405  and  _407
REMARK  166  A    between atoms: _407  and  _408
REMARK  167  A    between atoms: _407  and  _410
REMARK  168  A    between atoms: _410  and  _411
REMARK  169  A    between atoms: _417  and  _419
REMARK  170  A    between atoms: _419  and  _420
REMARK  171  A    between atoms: _419  and  _422
REMARK  172  A    between atoms: _422  and  _423
REMARK  173  A    between atoms: _426  and  _428
REMARK  174  A    between atoms: _428  and  _429
REMARK  175  A    between atoms: _428  and  _431
REMARK  176  A    between atoms: _431  and  _432
REMARK  177  A    between atoms: _435  and  _437
REMARK  178  A    between atoms: _437  and  _438
REMARK  179  A    between atoms: _437  and  _440
REMARK  180  A    between atoms: _443  and  _445
REMARK  181  A    between atoms: _445  and  _446
REMARK  182  A    between atoms: _445  and  _448
REMARK  183  A    between atoms: _448  and  _449
REMARK  184  A    between atoms: _449  and  _450
REMARK  185  A    between atoms: _450  and  _451
REMARK  186  A    between atoms: _451  and  _452
REMARK  187  A    between atoms: _456  and  _458
REMARK  188  A    between atoms: _458  and  _459
REMARK  189  A    between atoms: _458  and  _461
REMARK  190  A    between atoms: _461  and  _462
REMARK  191  A    between atoms: _462  and  _463
REMARK  192  A    between atoms: _468  and  _470
REMARK  193  A    between atoms: _470  and  _471
REMARK  194  A    between atoms: _470  and  _473
REMARK  195  A    between atoms: _473  and  _474
REMARK  196  A    between atoms: _480  and  _482
REMARK  197  A    between atoms: _482  and  _483
REMARK  198  A    between atoms: _482  and  _485
REMARK  199  A    between atoms: _485  and  _486
REMARK  200  A    between atoms: _490  and  _491
REMARK  201  A    between atoms: _497  and  _498
REMARK  202  A    between atoms: _503  and  _505
REMARK  203  A    between atoms: _505  and  _506
REMARK  204  A    between atoms: _505  and  _508
REMARK  205  A    between atoms: _508  and  _509
REMARK  206  A    between atoms: _512  and  _514
REMARK  207  A    between atoms: _514  and  _515
REMARK  208  A    between atoms: _514  and  _517
REMARK  209  A    between atoms: _517  and  _518
REMARK  210  A    between atoms: _523  and  _525
REMARK  211  A    between atoms: _525  and  _526
REMARK  212  A    between atoms: _525  and  _528
REMARK  213  A    between atoms: _528  and  _529
REMARK  214  A    between atoms: _532  and  _534
REMARK  215  A    between atoms: _534  and  _535
REMARK  216  A    between atoms: _534  and  _537
REMARK  217  A    between atoms: _537  and  _538
REMARK  218  A    between atoms: _538  and  _539
REMARK  219  A    between atoms: _542  and  _544
REMARK  220  A    between atoms: _544  and  _545
REMARK  221  A    between atoms: _547  and  _549
REMARK  222  A    between atoms: _549  and  _550
REMARK  223  A    between atoms: _549  and  _552
REMARK  224  A    between atoms: _552  and  _553
REMARK  225  A    between atoms: _556  and  _558
REMARK  226  A    between atoms: _558  and  _559
REMARK  227  A    between atoms: _562  and  _564
REMARK  228  A    between atoms: _564  and  _565
REMARK  229  A    between atoms: _564  and  _567
REMARK  230  A    between atoms: _567  and  _568
REMARK  231  A    between atoms: _571  and  _572
REMARK  232  A    between atoms: _577  and  _579
REMARK  233  A    between atoms: _579  and  _580
REMARK  234  A    between atoms: _579  and  _582
REMARK  235  A    between atoms: _582  and  _583
REMARK  236  A    between atoms: _589  and  _591
REMARK  237  A    between atoms: _591  and  _592
REMARK  238  A    between atoms: _591  and  _594
REMARK  239  A    between atoms: _597  and  _599
REMARK  240  A    between atoms: _599  and  _600
REMARK  241  A    between atoms: _599  and  _602
REMARK  242  A    between atoms: _602  and  _603
REMARK  243  A    between atoms: _603  and  _604
REMARK  244  A    between atoms: _607  and  _609
REMARK  245  A    between atoms: _609  and  _610
REMARK  246  A    between atoms: _609  and  _612
REMARK  247  A    between atoms: _612  and  _613
REMARK                            x       y       z     vdW  Elec       q    Type
REMARK                         _______ _______ _______ _____ _____    ______ ____
ROOT
ATOM      1  C   TYR A   3      49.175  31.482  33.199  0.00  0.00    +0.241 C 
ATOM      2  N   CYS A   4      48.049  32.081  33.564  0.00  0.00    -0.296 N 
ATOM      3  H   CYS A   4      48.040  32.695  34.404  0.00  0.00    +0.150 HD
ATOM      4  O   TYR A   3      49.259  30.771  32.199  0.00  0.00    -0.273 OA
ENDROOT
BRANCH   1   5
ATOM      5  CA  TYR A   3      50.411  31.724  34.050  0.00  0.00    +0.153 C 
BRANCH   5   7
ATOM      6  C   GLN A   2      51.007  33.767  35.184  0.00  0.00    +0.241 C 
ATOM      7  N   TYR A   3      50.372  32.603  35.205  0.00  0.00    -0.297 N 
ATOM      8  H   TYR A   3      49.843  32.318  36.054  0.00  0.00    +0.150 HD
ATOM      9  O   GLN A   2      51.524  34.233  34.172  0.00  0.00    -0.273 OA
BRANCH   6  10
ATOM     10  CA  GLN A   2      51.043  34.519  36.496  0.00  0.00    +0.149 C 
BRANCH  10  12
ATOM     11  C   SER A   1      48.713  35.163  36.603  0.00  0.00    +0.241 C 
ATOM     12  N   GLN A   2      49.765  34.596  37.180  0.00  0.00    -0.297 N 
ATOM     13  H   GLN A   2      49.672  34.201  38.137  0.00  0.00    +0.150 HD
ATOM     14  O   SER A   1      48.742  35.619  35.461  0.00  0.00    -0.274 OA
BRANCH  11  15
ATOM     15  CA  SER A   1      47.445  35.217  37.444  0.00  0.00    +0.174 C 
BRANCH  15  16
ATOM     16  N   SER A   1      47.150  33.902  38.008  0.00  0.00    -0.236 NA
ATOM     17  H   SER A   1      47.180  33.762  39.038  0.00  0.00    +0.142 HD
ENDBRANCH  15  16
BRANCH  15  18
ATOM     18  CB  SER A   1      47.636  36.258  38.555  0.00  0.00    +0.163 C 
BRANCH  18  19
ATOM     19  OG  SER A   1      46.407  36.582  39.181  0.00  0.00    -0.380 OA
ATOM     20  H   SER A   1      46.016  35.765  39.581  0.00  0.00    +0.211 HD
ENDBRANCH  18  19
ENDBRANCH  15  18
ENDBRANCH  11  15
ENDBRANCH  10  12
BRANCH  10  21
ATOM     21  CB  GLN A   2      52.089  33.819  37.373  0.00  0.00    +0.039 C 
BRANCH  21  22
ATOM     22  CG  GLN A   2      52.395  34.480  38.702  0.00  0.00    +0.087 C 
BRANCH  22  23
ATOM     23  CD  GLN A   2      53.467  35.551  38.627  0.00  0.00    +0.219 C 
ATOM     24  OE1 GLN A   2      54.042  35.927  39.651  0.00  0.00    -0.275 OA
ATOM     25  NE2 GLN A   2      53.732  36.055  37.434  0.00  0.00    -0.329 N 
ATOM     26 HE21 GLN A   2      54.451  36.800  37.332  0.00  0.00    +0.145 HD
ATOM     27 HE22 GLN A   2      53.222  35.707  36.597  0.00  0.00    +0.145 HD
ENDBRANCH  22  23
ENDBRANCH  21  22
ENDBRANCH  10  21
ENDBRANCH   6  10
ENDBRANCH   5   7
BRANCH   5  28
ATOM     28  CB  TYR A   3      50.999  30.392  34.525  0.00  0.00    +0.055 C 
BRANCH  28  29
ATOM     29  CG  TYR A   3      52.299  30.577  35.295  0.00  0.00    -0.020 A 
ATOM     30  CD2 TYR A   3      52.376  30.323  36.670  0.00  0.00    -0.001 A 
ATOM     31  CE2 TYR A   3      53.564  30.557  37.385  0.00  0.00    +0.036 A 
ATOM     32  CZ  TYR A   3      54.679  31.047  36.715  0.00  0.00    +0.134 A 
ATOM     33  CE1 TYR A   3      54.622  31.297  35.357  0.00  0.00    +0.036 A 
ATOM     34  CD1 TYR A   3      53.438  31.061  34.657  0.00  0.00    -0.001 A 
BRANCH  32  35
ATOM     35  OH  TYR A   3      55.850  31.300  37.390  0.00  0.00    -0.506 OA
ATOM     36  HH  TYR A   3      55.734  31.072  38.346  0.00  0.00    +0.292 HD
ENDBRANCH  32  35
ENDBRANCH  28  29
ENDBRANCH   5  28
ENDBRANCH   1   5
BRANCH   2  37
ATOM     37  CA  CYS A   4      46.818  31.886  32.795  0.00  0.00    +0.160 C 
BRANCH  37  38
ATOM     38  C   CYS A   4      46.148  33.164  32.315  0.00  0.00    +0.242 C 
ATOM     39  N   SER A   5      46.602  34.313  32.801  0.00  0.00    -0.295 N 
ATOM     40  H   SER A   5      47.419  34.311  33.444  0.00  0.00    +0.150 HD
ATOM     41  O   CYS A   4      45.220  33.104  31.507  0.00  0.00    -0.273 OA
BRANCH  39  42
ATOM     42  CA  SER A   5      45.969  35.579  32.445  0.00  0.00    +0.178 C 
BRANCH  42  43
ATOM     43  C   SER A   5      45.780  35.872  30.967  0.00  0.00    +0.243 C 
ATOM     44  O   SER A   5      44.740  36.399  30.578  0.00  0.00    -0.273 OA
ATOM     45  N   ARG A   6      46.770  35.552  30.139  0.00  0.00    -0.298 N 
ATOM     46  H   ARG A   6      47.636  35.112  30.509  0.00  0.00    +0.150 HD
BRANCH  45  47
ATOM     47  CA  ARG A   6      46.640  35.819  28.710  0.00  0.00    +0.137 C 
BRANCH  47  48
ATOM     48  C   ARG A   6      45.674  34.871  28.014  0.00  0.00    +0.227 C 
ATOM     49  O   ARG A   6      44.988  35.265  27.076  0.00  0.00    -0.286 OA
ENDBRANCH  47  48
BRANCH  47  50
ATOM     50  CB  ARG A   6      48.003  35.773  28.018  0.00  0.00    +0.031 C 
BRANCH  50  51
ATOM     51  CG  ARG A   6      48.869  37.007  28.269  0.00  0.00    +0.045 C 
BRANCH  51  52
ATOM     52  CD  ARG A   6      49.363  37.044  29.699  0.00  0.00    +0.174 C 
BRANCH  52  53
ATOM     53  NE  ARG A   6      50.125  35.838  29.998  0.00  0.00    -0.265 N 
ATOM     54  CZ  ARG A   6      50.481  35.463  31.222  0.00  0.00    +0.342 C 
ATOM     55  NH2 ARG A   6      50.145  36.203  32.274  0.00  0.00    -0.292 N 
ATOM     56 HH21 ARG A   6      50.426  35.905  33.230  0.00  0.00    +0.255 HD
ATOM     57 HH22 ARG A   6      49.601  37.079  32.141  0.00  0.00    +0.255 HD
ATOM     58  NH1 ARG A   6      51.166  34.341  31.390  0.00  0.00    -0.292 N 
ATOM     59 HH11 ARG A   6      51.448  34.042  32.345  0.00  0.00    +0.255 HD
ATOM     60 HH12 ARG A   6      51.422  33.760  30.566  0.00  0.00    +0.255 HD
ATOM     61  HE  ARG A   6      50.408  35.232  29.202  0.00  0.00    +0.259 HD
ENDBRANCH  52  53
ENDBRANCH  51  52
ENDBRANCH  50  51
ENDBRANCH  47  50
ENDBRANCH  45  47
ENDBRANCH  42  43
BRANCH  42  62
ATOM     62  CB  SER A   5      46.711  36.742  33.105  0.00  0.00    +0.166 C 
BRANCH  62  63
ATOM     63  OG  SER A   5      46.566  36.673  34.512  0.00  0.00    -0.380 OA
ATOM     64  H   SER A   5      46.942  35.818  34.840  0.00  0.00    +0.211 HD
ENDBRANCH  62  63
ENDBRANCH  42  62
ENDBRANCH  39  42
ENDBRANCH  37  38
BRANCH  37  65
ATOM     65  CB  CYS A   4      45.791  31.125  33.630  0.00  0.00    +0.098 C 
ATOM     66  SG  CYS A   4      46.307  29.509  34.165  0.00  0.00    -0.080 S 
ENDBRANCH  37  65
ENDBRANCH   2  37
TORSDOF 27
REMARK  Name = ../refined-set-2016/1zhy/1zhy_pocket.pdb
REMARK  247 active torsions:
REMARK  status: ('A' for Active; 'I' for Inactive)
REMARK    1  A    between atoms: _1  and  _3
REMARK    2  A    between atoms: _3  and  _4
REMARK    3  A    between atoms: _3  and  _6
REMARK    4  A    between atoms: _6  and  _7
REMARK    5  A    between atoms: _17  and  _19
REMARK    6  A    between atoms: _19  and  _20
REMARK    7  A    between atoms: _19  and  _22
REMARK    8  A    between atoms: _22  and  _23
REMARK    9  A    between atoms: _29  and  _31
REMARK   10  A    between atoms: _31  and  _32
REMARK   11  A    between atoms: _31  and  _34
REMARK   12  A    between atoms: _34  and  _35
REMARK   13  A    between atoms: _38  and  _40
REMARK   14  A    between atoms: _40  and  _41
REMARK   15  A    between atoms: _40  and  _43
REMARK   16  A    between atoms: _43  and  _44
REMARK   17  A    between atoms: _47  and  _49
REMARK   18  A    between atoms: _49  and  _50
REMARK   19  A    between atoms: _49  and  _52
REMARK   20  A    between atoms: _52  and  _53
REMARK   21  A    between atoms: _55  and  _57
REMARK   22  A    between atoms: _57  and  _58
REMARK   23  A    between atoms: _57  and  _60
REMARK   24  A    between atoms: _60  and  _61
REMARK   25  A    between atoms: _64  and  _66
REMARK   26  A    between atoms: _66  and  _67
REMARK   27  A    between atoms: _71  and  _72
REMARK   28  A    between atoms: _77  and  _79
REMARK   29  A    between atoms: _79  and  _80
REMARK   30  A    between atoms: _79  and  _82
REMARK   31  A    between atoms: _82  and  _83
REMARK   32  A    between atoms: _86  and  _88
REMARK   33  A    between atoms: _88  and  _89
REMARK   34  A    between atoms: _88  and  _91
REMARK   35  A    between atoms: _91  and  _92
REMARK   36  A    between atoms: _95  and  _97
REMARK   37  A    between atoms: _97  and  _98
REMARK   38  A    between atoms: _97  and  _100
REMARK   39  A    between atoms: _100  and  _101
REMARK   40  A    between atoms: _103  and  _105
REMARK   41  A    between atoms: _105  and  _106
REMARK   42  A    between atoms: _105  and  _108
REMARK   43  A    between atoms: _108  and  _109
REMARK   44  A    between atoms: _112  and  _114
REMARK   45  A    between atoms: _114  and  _115
REMARK   46  A    between atoms: _114  and  _117
REMARK   47  A    between atoms: _117  and  _118
REMARK   48  A    between atoms: _118  and  _119
REMARK   49  A    between atoms: _122  and  _124
REMARK   50  A    between atoms: _124  and  _125
REMARK   51  A    between atoms: _124  and  _127
REMARK   52  A    between atoms: _127  and  _128
REMARK   53  A    between atoms: _134  and  _136
REMARK   54  A    between atoms: _136  and  _137
REMARK   55  A    between atoms: _136  and  _139
REMARK   56  A    between atoms: _139  and  _140
REMARK   57  A    between atoms: _142  and  _144
REMARK   58  A    between atoms: _144  and  _145
REMARK   59  A    between atoms: _144  and  _147
REMARK   60  A    between atoms: _147  and  _148
REMARK   61  A    between atoms: _148  and  _149
REMARK   62  A    between atoms: _154  and  _156
REMARK   63  A    between atoms: _156  and  _157
REMARK   64  A    between atoms: _156  and  _159
REMARK   65  A    between atoms: _159  and  _160
REMARK   66  A    between atoms: _165  and  _166
REMARK   67  A    between atoms: _168  and  _170
REMARK   68  A    between atoms: _170  and  _171
REMARK   69  A    between atoms: _170  and  _173
REMARK   70  A    between atoms: _173  and  _174
REMARK   71  A    between atoms: _184  and  _186
REMARK   72  A    between atoms: _186  and  _187
REMARK   73  A    between atoms: _186  and  _189
REMARK   74  A    between atoms: _189  and  _190
REMARK   75  A    between atoms: _193  and  _195
REMARK   76  A    between atoms: _195  and  _196
REMARK   77  A    between atoms: _195  and  _198
REMARK   78  A    between atoms: _198  and  _199
REMARK   79  A    between atoms: _202  and  _204
REMARK   80  A    between atoms: _204  and  _205
REMARK   81  A    between atoms: _204  and  _207
REMARK   82  A    between atoms: _207  and  _208
REMARK   83  A    between atoms: _210  and  _212
REMARK   84  A    between atoms: _212  and  _213
REMARK   85  A    between atoms: _212  and  _215
REMARK   86  A    between atoms: _215  and  _216
REMARK   87  A    between atoms: _216  and  _217
REMARK   88  A    between atoms: _222  and  _224
REMARK   89  A    between atoms: _224  and  _225
REMARK   90  A    between atoms: _224  and  _227
REMARK   91  A    between atoms: _227  and  _228
REMARK   92  A    between atoms: _233  and  _234
REMARK   93  A    between atoms: _236  and  _238
REMARK   94  A    between atoms: _238  and  _239
REMARK   95  A    between atoms: _238  and  _241
REMARK   96  A    between atoms: _243  and  _245
REMARK   97  A    between atoms: _245  and  _246
REMARK   98  A    between atoms: _245  and  _248
REMARK   99  A    between atoms: _248  and  _249
REMARK  100  A    between atoms: _251  and  _253
REMARK  101  A    between atoms: _253  and  _254
REMARK  102  A    between atoms: _253  and  _256
REMARK  103  A    between atoms: _256  and  _257
REMARK  104  A    between atoms: _257  and  _258
REMARK  105  A    between atoms: _258  and  _259
REMARK  106  A    between atoms: _268  and  _270
REMARK  107  A    between atoms: _270  and  _271
REMARK  108  A    between atoms: _270  and  _273
REMARK  109  A    between atoms: _273  and  _274
REMARK  110  A    between atoms: _276  and  _278
REMARK  111  A    between atoms: _278  and  _279
REMARK  112  A    between atoms: _278  and  _281
REMARK  113  A    between atoms: _281  and  _282
REMARK  114  A    between atoms: _282  and  _283
REMARK  115  A    between atoms: _286  and  _288
REMARK  116  A    between atoms: _288  and  _289
REMARK  117  A    between atoms: _288  and  _291
REMARK  118  A    between atoms: _291  and  _292
REMARK  119  A    between atoms: _292  and  _293
REMARK  120  A    between atoms: _293  and  _294
REMARK  121  A    between atoms: _294  and  _295
REMARK  122  A    between atoms: _299  and  _301
REMARK  123  A    between atoms: _301  and  _302
REMARK  124  A    between atoms: _301  and  _304
REMARK  125  A    between atoms: _304  and  _305
REMARK  126  A    between atoms: _305  and  _306
REMARK  127  A    between atoms: _306  and  _307
REMARK  128  A    between atoms: _307  and  _308
REMARK  129  A    between atoms: _313  and  _314
REMARK  130  A    between atoms: _319  and  _321
REMARK  131  A    between atoms: _321  and  _322
REMARK  132  A    between atoms: _321  and  _324
REMARK  133  A    between atoms: _324  and  _325
REMARK  134  A    between atoms: _328  and  _330
REMARK  135  A    between atoms: _330  and  _331
REMARK  136  A    between atoms: _330  and  _333
REMARK  137  A    between atoms: _333  and  _334
REMARK  138  A    between atoms: _340  and  _342
REMARK  139  A    between atoms: _342  and  _343
REMARK  140  A    between atoms: _342  and  _345
REMARK  141  A    between atoms: _345  and  _346
REMARK  142  A    between atoms: _351  and  _352
REMARK  143  A    between atoms: _354  and  _356
REMARK  144  A    between atoms: _356  and  _357
REMARK  145  A    between atoms: _356  and  _359
REMARK  146  A    between atoms: _359  and  _360
REMARK  147  A    between atoms: _365  and  _367
REMARK  148  A    between atoms: _367  and  _368
REMARK  149  A    between atoms: _367  and  _370
REMARK  150  A    between atoms: _370  and  _371
REMARK  151  A    between atoms: _371  and  _372
REMARK  152  A    between atoms: _377  and  _379
REMARK  153  A    between atoms: _379  and  _380
REMARK  154  A    between atoms: _379  and  _382
REMARK  155  A    between atoms: _382  and  _383
REMARK  156  A    between atoms: _386  and  _388
REMARK  157  A    between atoms: _388  and  _389
REMARK  158  A    between atoms: _388  and  _391
REMARK  159  A    between atoms: _391  and  _392
REMARK  160  A    between atoms: _392  and  _393
REMARK  161  A    between atoms: _393  and  _394
REMARK  162  A    between atoms: _394  and  _395
REMARK  163  A    between atoms: _399  and  _401
REMARK  164  A    between atoms: _401  and  _402
REMARK  165  A    between atoms: _405  and  _407
REMARK  166  A    between atoms: _407  and  _408
REMARK  167  A    between atoms: _407  and  _410
REMARK  168  A    between atoms: _410  and  _411
REMARK  169  A    between atoms: _417  and  _419
REMARK  170  A    between atoms: _419  and  _420
REMARK  171  A    between atoms: _419  and  _422
REMARK  172  A    between atoms: _422  and  _423
REMARK  173  A    between atoms: _426  and  _428
REMARK  174  A    between atoms: _428  and  _429
REMARK  175  A    between atoms: _428  and  _431
REMARK  176  A    between atoms: _431  and  _432
REMARK  177  A    between atoms: _435  and  _437
REMARK  178  A    between atoms: _437  and  _438
REMARK  179  A    between atoms: _437  and  _440
REMARK  180  A    between atoms: _443  and  _445
REMARK  181  A    between atoms: _445  and  _446
REMARK  182  A    between atoms: _445  and  _448
REMARK  183  A    between atoms: _448  and  _449
REMARK  184  A    between atoms: _449  and  _450
REMARK  185  A    between atoms: _450  and  _451
REMARK  186  A    between atoms: _451  and  _452
REMARK  187  A    between atoms: _456  and  _458
REMARK  188  A    between atoms: _458  and  _459
REMARK  189  A    between atoms: _458  and  _461
REMARK  190  A    between atoms: _461  and  _462
REMARK  191  A    between atoms: _462  and  _463
REMARK  192  A    between atoms: _468  and  _470
REMARK  193  A    between atoms: _470  and  _471
REMARK  194  A    between atoms: _470  and  _473
REMARK  195  A    between atoms: _473  and  _474
REMARK  196  A    between atoms: _480  and  _482
REMARK  197  A    between atoms: _482  and  _483
REMARK  198  A    between atoms: _482  and  _485
REMARK  199  A    between atoms: _485  and  _486
REMARK  200  A    between atoms: _490  and  _491
REMARK  201  A    between atoms: _497  and  _498
REMARK  202  A    between atoms: _503  and  _505
REMARK  203  A    between atoms: _505  and  _506
REMARK  204  A    between atoms: _505  and  _508
REMARK  205  A    between atoms: _508  and  _509
REMARK  206  A    between atoms: _512  and  _514
REMARK  207  A    between atoms: _514  and  _515
REMARK  208  A    between atoms: _514  and  _517
REMARK  209  A    between atoms: _517  and  _518
REMARK  210  A    between atoms: _523  and  _525
REMARK  211  A    between atoms: _525  and  _526
REMARK  212  A    between atoms: _525  and  _528
REMARK  213  A    between atoms: _528  and  _529
REMARK  214  A    between atoms: _532  and  _534
REMARK  215  A    between atoms: _534  and  _535
REMARK  216  A    between atoms: _534  and  _537
REMARK  217  A    between atoms: _537  and  _538
REMARK  218  A    between atoms: _538  and  _539
REMARK  219  A    between atoms: _542  and  _544
REMARK  220  A    between atoms: _544  and  _545
REMARK  221  A    between atoms: _547  and  _549
REMARK  222  A    between atoms: _549  and  _550
REMARK  223  A    between atoms: _549  and  _552
REMARK  224  A    between atoms: _552  and  _553
REMARK  225  A    between atoms: _556  and  _558
REMARK  226  A    between atoms: _558  and  _559
REMARK  227  A    between atoms: _562  and  _564
REMARK  228  A    between atoms: _564  and  _565
REMARK  229  A    between atoms: _564  and  _567
REMARK  230  A    between atoms: _567  and  _568
REMARK  231  A    between atoms: _571  and  _572
REMARK  232  A    between atoms: _577  and  _579
REMARK  233  A    between atoms: _579  and  _580
REMARK  234  A    between atoms: _579  and  _582
REMARK  235  A    between atoms: _582  and  _583
REMARK  236  A    between atoms: _589  and  _591
REMARK  237  A    between atoms: _591  and  _592
REMARK  238  A    between atoms: _591  and  _594
REMARK  239  A    between atoms: _597  and  _599
REMARK  240  A    between atoms: _599  and  _600
REMARK  241  A    between atoms: _599  and  _602
REMARK  242  A    between atoms: _602  and  _603
REMARK  243  A    between atoms: _603  and  _604
REMARK  244  A    between atoms: _607  and  _609
REMARK  245  A    between atoms: _609  and  _610
REMARK  246  A    between atoms: _609  and  _612
REMARK  247  A    between atoms: _612  and  _613
REMARK                            x       y       z     vdW  Elec       q    Type
REMARK                         _______ _______ _______ _____ _____    ______ ____
ROOT
ATOM      1  CA  LYS A   3      51.078  35.056  23.412  0.00  0.00    +0.149 C 
ENDROOT
BRANCH   1   3
ATOM      2  C   GLU A   2      49.942  33.185  24.441  0.00  0.00    +0.241 C 
ATOM      3  N   LYS A   3      50.523  34.370  24.573  0.00  0.00    -0.297 N 
ATOM      4  H   LYS A   3      50.583  34.813  25.512  0.00  0.00    +0.150 HD
ATOM      5  O   GLU A   2      49.804  32.630  23.346  0.00  0.00    -0.273 OA
BRANCH   2   6
ATOM      6  CA  GLU A   2      49.395  32.537  25.709  0.00  0.00    +0.149 C 
BRANCH   6   8
ATOM      7  C   SER A   1      47.150  32.597  24.905  0.00  0.00    +0.241 C 
ATOM      8  N   GLU A   2      48.200  31.860  25.239  0.00  0.00    -0.297 N 
ATOM      9  H   GLU A   2      48.168  30.823  25.166  0.00  0.00    +0.150 HD
ATOM     10  O   SER A   1      47.125  33.817  25.056  0.00  0.00    -0.274 OA
BRANCH   7  11
ATOM     11  CA  SER A   1      45.944  31.868  24.349  0.00  0.00    +0.174 C 
BRANCH  11  12
ATOM     12  N   SER A   1      44.875  32.853  24.225  0.00  0.00    -0.236 NA
ATOM     13  H   SER A   1      45.078  33.846  24.459  0.00  0.00    +0.142 HD
ENDBRANCH  11  12
BRANCH  11  14
ATOM     14  CB  SER A   1      46.318  31.269  22.986  0.00  0.00    +0.163 C 
BRANCH  14  15
ATOM     15  OG  SER A   1      47.046  32.197  22.187  0.00  0.00    -0.380 OA
ATOM     16  H   SER A   1      47.880  32.452  22.656  0.00  0.00    +0.211 HD
ENDBRANCH  14  15
ENDBRANCH  11  14
ENDBRANCH   7  11
ENDBRANCH   6   8
BRANCH   6  17
ATOM     17  CB  GLU A   2      50.412  31.547  26.284  0.00  0.00    +0.041 C 
BRANCH  17  18
ATOM     18  CG  GLU A   2      51.615  32.246  26.900  0.00  0.00    +0.116 C 
BRANCH  18  19
ATOM     19  CD  GLU A   2      51.210  33.215  27.993  0.00  0.00    +0.365 C 
ATOM     20  OE2 GLU A   2      50.906  32.748  29.112  0.00  0.00    -0.246 OA
ATOM     21  OE1 GLU A   2      51.177  34.440  27.727  0.00  0.00    -0.246 OA
ENDBRANCH  18  19
ENDBRANCH  17  18
ENDBRANCH   6  17
ENDBRANCH   2   6
ENDBRANCH   1   3
BRANCH   1  22
ATOM     22  C   LYS A   3      52.445  35.641  23.728  0.00  0.00    +0.241 C 
ATOM     23  O   LYS A   3      52.892  35.615  24.876  0.00  0.00    -0.273 OA
ATOM     24  N   LYS A   4      53.120  36.157  22.707  0.00  0.00    -0.297 N 
ATOM     25  H   LYS A   4      52.701  36.148  21.755  0.00  0.00    +0.150 HD
BRANCH  24  26
ATOM     26  CA  LYS A   4      54.442  36.736  22.907  0.00  0.00    +0.149 C 
BRANCH  26  27
ATOM     27  C   LYS A   4      54.294  38.121  23.525  0.00  0.00    +0.244 C 
ATOM     28  N   PRO A   5      54.831  38.324  24.734  0.00  0.00    -0.273 N 
ATOM     29  CD  PRO A   5      55.533  37.368  25.611  0.00  0.00    +0.094 C 
ATOM     30  CG  PRO A   5      56.058  38.269  26.720  0.00  0.00    +0.024 C 
ATOM     31  CB  PRO A   5      55.005  39.312  26.839  0.00  0.00    +0.030 C 
ATOM     32  CA  PRO A   5      54.720  39.633  25.378  0.00  0.00    +0.140 C 
ATOM     33  O   LYS A   4      53.693  39.008  22.931  0.00  0.00    -0.273 OA
BRANCH  32  34
ATOM     34  C   PRO A   5      55.732  40.612  24.801  0.00  0.00    +0.227 C 
ATOM     35  O   PRO A   5      56.689  40.207  24.139  0.00  0.00    -0.286 OA
ENDBRANCH  32  34
ENDBRANCH  26  27
BRANCH  26  36
ATOM     36  CB  LYS A   4      55.189  36.842  21.575  0.00  0.00    +0.029 C 
BRANCH  36  37
ATOM     37  CG  LYS A   4      56.593  37.419  21.714  0.00  0.00    +0.000 C 
BRANCH  37  38
ATOM     38  CD  LYS A   4      57.185  37.796  20.363  0.00  0.00    -0.024 C 
BRANCH  38  39
ATOM     39  CE  LYS A   4      58.503  38.538  20.534  0.00  0.00    -0.086 C 
BRANCH  39  40
ATOM     40  NZ  LYS A   4      58.978  39.127  19.248  0.00  0.00    +0.380 N 
ATOM     41  HZ1 LYS A   4      59.878  39.624  19.407  0.00  0.00    -0.089 HD
ATOM     42  HZ2 LYS A   4      58.268  39.799  18.893  0.00  0.00    -0.089 HD
ATOM     43  HZ3 LYS A   4      59.118  38.368  18.551  0.00  0.00    -0.089 HD
ENDBRANCH  39  40
ENDBRANCH  38  39
ENDBRANCH  37  38
ENDBRANCH  36  37
ENDBRANCH  26  36
ENDBRANCH  24  26
ENDBRANCH   1  22
BRANCH   1  44
ATOM     44  CB  LYS A   3      50.116  36.152  22.929  0.00  0.00    +0.029 C 
BRANCH  44  45
ATOM     45  CG  LYS A   3      48.803  35.594  22.372  0.00  0.00    +0.000 C 
BRANCH  45  46
ATOM     46  CD  LYS A   3      48.019  36.624  21.572  0.00  0.00    -0.024 C 
BRANCH  46  47
ATOM     47  CE  LYS A   3      46.793  35.990  20.920  0.00  0.00    -0.086 C 
BRANCH  47  48
ATOM     48  NZ  LYS A   3      46.054  36.957  20.060  0.00  0.00    +0.380 N 
ATOM     49  HZ1 LYS A   3      45.736  37.760  20.638  0.00  0.00    -0.089 HD
ATOM     50  HZ2 LYS A   3      45.230  36.484  19.638  0.00  0.00    -0.089 HD
ATOM     51  HZ3 LYS A   3      46.683  37.299  19.306  0.00  0.00    -0.089 HD
ENDBRANCH  47  48
ENDBRANCH  46  47
ENDBRANCH  45  46
ENDBRANCH  44  45
ENDBRANCH   1  44
TORSDOF 24
REMARK  Name = ../refined-set-2016/1zhy/1zhy_pocket.pdb
REMARK  247 active torsions:
REMARK  status: ('A' for Active; 'I' for Inactive)
REMARK    1  A    between atoms: _1  and  _3
REMARK    2  A    between atoms: _3  and  _4
REMARK    3  A    between atoms: _3  and  _6
REMARK    4  A    between atoms: _6  and  _7
REMARK    5  A    between atoms: _17  and  _19
REMARK    6  A    between atoms: _19  and  _20
REMARK    7  A    between atoms: _19  and  _22
REMARK    8  A    between atoms: _22  and  _23
REMARK    9  A    between atoms: _29  and  _31
REMARK   10  A    between atoms: _31  and  _32
REMARK   11  A    between atoms: _31  and  _34
REMARK   12  A    between atoms: _34  and  _35
REMARK   13  A    between atoms: _38  and  _40
REMARK   14  A    between atoms: _40  and  _41
REMARK   15  A    between atoms: _40  and  _43
REMARK   16  A    between atoms: _43  and  _44
REMARK   17  A    between atoms: _47  and  _49
REMARK   18  A    between atoms: _49  and  _50
REMARK   19  A    between atoms: _49  and  _52
REMARK   20  A    between atoms: _52  and  _53
REMARK   21  A    between atoms: _55  and  _57
REMARK   22  A    between atoms: _57  and  _58
REMARK   23  A    between atoms: _57  and  _60
REMARK   24  A    between atoms: _60  and  _61
REMARK   25  A    between atoms: _64  and  _66
REMARK   26  A    between atoms: _66  and  _67
REMARK   27  A    between atoms: _71  and  _72
REMARK   28  A    between atoms: _77  and  _79
REMARK   29  A    between atoms: _79  and  _80
REMARK   30  A    between atoms: _79  and  _82
REMARK   31  A    between atoms: _82  and  _83
REMARK   32  A    between atoms: _86  and  _88
REMARK   33  A    between atoms: _88  and  _89
REMARK   34  A    between atoms: _88  and  _91
REMARK   35  A    between atoms: _91  and  _92
REMARK   36  A    between atoms: _95  and  _97
REMARK   37  A    between atoms: _97  and  _98
REMARK   38  A    between atoms: _97  and  _100
REMARK   39  A    between atoms: _100  and  _101
REMARK   40  A    between atoms: _103  and  _105
REMARK   41  A    between atoms: _105  and  _106
REMARK   42  A    between atoms: _105  and  _108
REMARK   43  A    between atoms: _108  and  _109
REMARK   44  A    between atoms: _112  and  _114
REMARK   45  A    between atoms: _114  and  _115
REMARK   46  A    between atoms: _114  and  _117
REMARK   47  A    between atoms: _117  and  _118
REMARK   48  A    between atoms: _118  and  _119
REMARK   49  A    between atoms: _122  and  _124
REMARK   50  A    between atoms: _124  and  _125
REMARK   51  A    between atoms: _124  and  _127
REMARK   52  A    between atoms: _127  and  _128
REMARK   53  A    between atoms: _134  and  _136
REMARK   54  A    between atoms: _136  and  _137
REMARK   55  A    between atoms: _136  and  _139
REMARK   56  A    between atoms: _139  and  _140
REMARK   57  A    between atoms: _142  and  _144
REMARK   58  A    between atoms: _144  and  _145
REMARK   59  A    between atoms: _144  and  _147
REMARK   60  A    between atoms: _147  and  _148
REMARK   61  A    between atoms: _148  and  _149
REMARK   62  A    between atoms: _154  and  _156
REMARK   63  A    between atoms: _156  and  _157
REMARK   64  A    between atoms: _156  and  _159
REMARK   65  A    between atoms: _159  and  _160
REMARK   66  A    between atoms: _165  and  _166
REMARK   67  A    between atoms: _168  and  _170
REMARK   68  A    between atoms: _170  and  _171
REMARK   69  A    between atoms: _170  and  _173
REMARK   70  A    between atoms: _173  and  _174
REMARK   71  A    between atoms: _184  and  _186
REMARK   72  A    between atoms: _186  and  _187
REMARK   73  A    between atoms: _186  and  _189
REMARK   74  A    between atoms: _189  and  _190
REMARK   75  A    between atoms: _193  and  _195
REMARK   76  A    between atoms: _195  and  _196
REMARK   77  A    between atoms: _195  and  _198
REMARK   78  A    between atoms: _198  and  _199
REMARK   79  A    between atoms: _202  and  _204
REMARK   80  A    between atoms: _204  and  _205
REMARK   81  A    between atoms: _204  and  _207
REMARK   82  A    between atoms: _207  and  _208
REMARK   83  A    between atoms: _210  and  _212
REMARK   84  A    between atoms: _212  and  _213
REMARK   85  A    between atoms: _212  and  _215
REMARK   86  A    between atoms: _215  and  _216
REMARK   87  A    between atoms: _216  and  _217
REMARK   88  A    between atoms: _222  and  _224
REMARK   89  A    between atoms: _224  and  _225
REMARK   90  A    between atoms: _224  and  _227
REMARK   91  A    between atoms: _227  and  _228
REMARK   92  A    between atoms: _233  and  _234
REMARK   93  A    between atoms: _236  and  _238
REMARK   94  A    between atoms: _238  and  _239
REMARK   95  A    between atoms: _238  and  _241
REMARK   96  A    between atoms: _243  and  _245
REMARK   97  A    between atoms: _245  and  _246
REMARK   98  A    between atoms: _245  and  _248
REMARK   99  A    between atoms: _248  and  _249
REMARK  100  A    between atoms: _251  and  _253
REMARK  101  A    between atoms: _253  and  _254
REMARK  102  A    between atoms: _253  and  _256
REMARK  103  A    between atoms: _256  and  _257
REMARK  104  A    between atoms: _257  and  _258
REMARK  105  A    between atoms: _258  and  _259
REMARK  106  A    between atoms: _268  and  _270
REMARK  107  A    between atoms: _270  and  _271
REMARK  108  A    between atoms: _270  and  _273
REMARK  109  A    between atoms: _273  and  _274
REMARK  110  A    between atoms: _276  and  _278
REMARK  111  A    between atoms: _278  and  _279
REMARK  112  A    between atoms: _278  and  _281
REMARK  113  A    between atoms: _281  and  _282
REMARK  114  A    between atoms: _282  and  _283
REMARK  115  A    between atoms: _286  and  _288
REMARK  116  A    between atoms: _288  and  _289
REMARK  117  A    between atoms: _288  and  _291
REMARK  118  A    between atoms: _291  and  _292
REMARK  119  A    between atoms: _292  and  _293
REMARK  120  A    between atoms: _293  and  _294
REMARK  121  A    between atoms: _294  and  _295
REMARK  122  A    between atoms: _299  and  _301
REMARK  123  A    between atoms: _301  and  _302
REMARK  124  A    between atoms: _301  and  _304
REMARK  125  A    between atoms: _304  and  _305
REMARK  126  A    between atoms: _305  and  _306
REMARK  127  A    between atoms: _306  and  _307
REMARK  128  A    between atoms: _307  and  _308
REMARK  129  A    between atoms: _313  and  _314
REMARK  130  A    between atoms: _319  and  _321
REMARK  131  A    between atoms: _321  and  _322
REMARK  132  A    between atoms: _321  and  _324
REMARK  133  A    between atoms: _324  and  _325
REMARK  134  A    between atoms: _328  and  _330
REMARK  135  A    between atoms: _330  and  _331
REMARK  136  A    between atoms: _330  and  _333
REMARK  137  A    between atoms: _333  and  _334
REMARK  138  A    between atoms: _340  and  _342
REMARK  139  A    between atoms: _342  and  _343
REMARK  140  A    between atoms: _342  and  _345
REMARK  141  A    between atoms: _345  and  _346
REMARK  142  A    between atoms: _351  and  _352
REMARK  143  A    between atoms: _354  and  _356
REMARK  144  A    between atoms: _356  and  _357
REMARK  145  A    between atoms: _356  and  _359
REMARK  146  A    between atoms: _359  and  _360
REMARK  147  A    between atoms: _365  and  _367
REMARK  148  A    between atoms: _367  and  _368
REMARK  149  A    between atoms: _367  and  _370
REMARK  150  A    between atoms: _370  and  _371
REMARK  151  A    between atoms: _371  and  _372
REMARK  152  A    between atoms: _377  and  _379
REMARK  153  A    between atoms: _379  and  _380
REMARK  154  A    between atoms: _379  and  _382
REMARK  155  A    between atoms: _382  and  _383
REMARK  156  A    between atoms: _386  and  _388
REMARK  157  A    between atoms: _388  and  _389
REMARK  158  A    between atoms: _388  and  _391
REMARK  159  A    between atoms: _391  and  _392
REMARK  160  A    between atoms: _392  and  _393
REMARK  161  A    between atoms: _393  and  _394
REMARK  162  A    between atoms: _394  and  _395
REMARK  163  A    between atoms: _399  and  _401
REMARK  164  A    between atoms: _401  and  _402
REMARK  165  A    between atoms: _405  and  _407
REMARK  166  A    between atoms: _407  and  _408
REMARK  167  A    between atoms: _407  and  _410
REMARK  168  A    between atoms: _410  and  _411
REMARK  169  A    between atoms: _417  and  _419
REMARK  170  A    between atoms: _419  and  _420
REMARK  171  A    between atoms: _419  and  _422
REMARK  172  A    between atoms: _422  and  _423
REMARK  173  A    between atoms: _426  and  _428
REMARK  174  A    between atoms: _428  and  _429
REMARK  175  A    between atoms: _428  and  _431
REMARK  176  A    between atoms: _431  and  _432
REMARK  177  A    between atoms: _435  and  _437
REMARK  178  A    between atoms: _437  and  _438
REMARK  179  A    between atoms: _437  and  _440
REMARK  180  A    between atoms: _443  and  _445
REMARK  181  A    between atoms: _445  and  _446
REMARK  182  A    between atoms: _445  and  _448
REMARK  183  A    between atoms: _448  and  _449
REMARK  184  A    between atoms: _449  and  _450
REMARK  185  A    between atoms: _450  and  _451
REMARK  186  A    between atoms: _451  and  _452
REMARK  187  A    between atoms: _456  and  _458
REMARK  188  A    between atoms: _458  and  _459
REMARK  189  A    between atoms: _458  and  _461
REMARK  190  A    between atoms: _461  and  _462
REMARK  191  A    between atoms: _462  and  _463
REMARK  192  A    between atoms: _468  and  _470
REMARK  193  A    between atoms: _470  and  _471
REMARK  194  A    between atoms: _470  and  _473
REMARK  195  A    between atoms: _473  and  _474
REMARK  196  A    between atoms: _480  and  _482
REMARK  197  A    between atoms: _482  and  _483
REMARK  198  A    between atoms: _482  and  _485
REMARK  199  A    between atoms: _485  and  _486
REMARK  200  A    between atoms: _490  and  _491
REMARK  201  A    between atoms: _497  and  _498
REMARK  202  A    between atoms: _503  and  _505
REMARK  203  A    between atoms: _505  and  _506
REMARK  204  A    between atoms: _505  and  _508
REMARK  205  A    between atoms: _508  and  _509
REMARK  206  A    between atoms: _512  and  _514
REMARK  207  A    between atoms: _514  and  _515
REMARK  208  A    between atoms: _514  and  _517
REMARK  209  A    between atoms: _517  and  _518
REMARK  210  A    between atoms: _523  and  _525
REMARK  211  A    between atoms: _525  and  _526
REMARK  212  A    between atoms: _525  and  _528
REMARK  213  A    between atoms: _528  and  _529
REMARK  214  A    between atoms: _532  and  _534
REMARK  215  A    between atoms: _534  and  _535
REMARK  216  A    between atoms: _534  and  _537
REMARK  217  A    between atoms: _537  and  _538
REMARK  218  A    between atoms: _538  and  _539
REMARK  219  A    between atoms: _542  and  _544
REMARK  220  A    between atoms: _544  and  _545
REMARK  221  A    between atoms: _547  and  _549
REMARK  222  A    between atoms: _549  and  _550
REMARK  223  A    between atoms: _549  and  _552
REMARK  224  A    between atoms: _552  and  _553
REMARK  225  A    between atoms: _556  and  _558
REMARK  226  A    between atoms: _558  and  _559
REMARK  227  A    between atoms: _562  and  _564
REMARK  228  A    between atoms: _564  and  _565
REMARK  229  A    between atoms: _564  and  _567
REMARK  230  A    between atoms: _567  and  _568
REMARK  231  A    between atoms: _571  and  _572
REMARK  232  A    between atoms: _577  and  _579
REMARK  233  A    between atoms: _579  and  _580
REMARK  234  A    between atoms: _579  and  _582
REMARK  235  A    between atoms: _582  and  _583
REMARK  236  A    between atoms: _589  and  _591
REMARK  237  A    between atoms: _591  and  _592
REMARK  238  A    between atoms: _591  and  _594
REMARK  239  A    between atoms: _597  and  _599
REMARK  240  A    between atoms: _599  and  _600
REMARK  241  A    between atoms: _599  and  _602
REMARK  242  A    between atoms: _602  and  _603
REMARK  243  A    between atoms: _603  and  _604
REMARK  244  A    between atoms: _607  and  _609
REMARK  245  A    between atoms: _609  and  _610
REMARK  246  A    between atoms: _609  and  _612
REMARK  247  A    between atoms: _612  and  _613
REMARK                            x       y       z     vdW  Elec       q    Type
REMARK                         _______ _______ _______ _____ _____    ______ ____
ROOT
ATOM      1  CA  THR A   1      62.504  42.804  35.595  0.00  0.00    +0.160 C 
ENDROOT
BRANCH   1   2
ATOM      2  N   THR A   1      63.488  41.906  35.001  0.00  0.00    -0.237 NA
ATOM      3  H   THR A   1      63.385  40.880  35.136  0.00  0.00    +0.142 HD
ENDBRANCH   1   2
BRANCH   1   4
ATOM      4  C   THR A   1      62.645  42.709  37.112  0.00  0.00    +0.227 C 
ATOM      5  O   THR A   1      62.703  41.611  37.656  0.00  0.00    -0.287 OA
ENDBRANCH   1   4
BRANCH   1   6
ATOM      6  CB  THR A   1      61.069  42.387  35.201  0.00  0.00    +0.134 C 
ATOM      7  CG2 THR A   1      60.037  43.371  35.765  0.00  0.00    +0.034 C 
BRANCH   6   8
ATOM      8  OG1 THR A   1      60.954  42.357  33.773  0.00  0.00    -0.383 OA
ATOM      9  HG1 THR A   1      61.148  43.257  33.408  0.00  0.00    +0.210 HD
ENDBRANCH   6   8
ENDBRANCH   1   6
TORSDOF 4
REMARK  Name = ../refined-set-2016/1zhy/1zhy_pocket.pdb
REMARK  247 active torsions:
REMARK  status: ('A' for Active; 'I' for Inactive)
REMARK    1  A    between atoms: _1  and  _3
REMARK    2  A    between atoms: _3  and  _4
REMARK    3  A    between atoms: _3  and  _6
REMARK    4  A    between atoms: _6  and  _7
REMARK    5  A    between atoms: _17  and  _19
REMARK    6  A    between atoms: _19  and  _20
REMARK    7  A    between atoms: _19  and  _22
REMARK    8  A    between atoms: _22  and  _23
REMARK    9  A    between atoms: _29  and  _31
REMARK   10  A    between atoms: _31  and  _32
REMARK   11  A    between atoms: _31  and  _34
REMARK   12  A    between atoms: _34  and  _35
REMARK   13  A    between atoms: _38  and  _40
REMARK   14  A    between atoms: _40  and  _41
REMARK   15  A    between atoms: _40  and  _43
REMARK   16  A    between atoms: _43  and  _44
REMARK   17  A    between atoms: _47  and  _49
REMARK   18  A    between atoms: _49  and  _50
REMARK   19  A    between atoms: _49  and  _52
REMARK   20  A    between atoms: _52  and  _53
REMARK   21  A    between atoms: _55  and  _57
REMARK   22  A    between atoms: _57  and  _58
REMARK   23  A    between atoms: _57  and  _60
REMARK   24  A    between atoms: _60  and  _61
REMARK   25  A    between atoms: _64  and  _66
REMARK   26  A    between atoms: _66  and  _67
REMARK   27  A    between atoms: _71  and  _72
REMARK   28  A    between atoms: _77  and  _79
REMARK   29  A    between atoms: _79  and  _80
REMARK   30  A    between atoms: _79  and  _82
REMARK   31  A    between atoms: _82  and  _83
REMARK   32  A    between atoms: _86  and  _88
REMARK   33  A    between atoms: _88  and  _89
REMARK   34  A    between atoms: _88  and  _91
REMARK   35  A    between atoms: _91  and  _92
REMARK   36  A    between atoms: _95  and  _97
REMARK   37  A    between atoms: _97  and  _98
REMARK   38  A    between atoms: _97  and  _100
REMARK   39  A    between atoms: _100  and  _101
REMARK   40  A    between atoms: _103  and  _105
REMARK   41  A    between atoms: _105  and  _106
REMARK   42  A    between atoms: _105  and  _108
REMARK   43  A    between atoms: _108  and  _109
REMARK   44  A    between atoms: _112  and  _114
REMARK   45  A    between atoms: _114  and  _115
REMARK   46  A    between atoms: _114  and  _117
REMARK   47  A    between atoms: _117  and  _118
REMARK   48  A    between atoms: _118  and  _119
REMARK   49  A    between atoms: _122  and  _124
REMARK   50  A    between atoms: _124  and  _125
REMARK   51  A    between atoms: _124  and  _127
REMARK   52  A    between atoms: _127  and  _128
REMARK   53  A    between atoms: _134  and  _136
REMARK   54  A    between atoms: _136  and  _137
REMARK   55  A    between atoms: _136  and  _139
REMARK   56  A    between atoms: _139  and  _140
REMARK   57  A    between atoms: _142  and  _144
REMARK   58  A    between atoms: _144  and  _145
REMARK   59  A    between atoms: _144  and  _147
REMARK   60  A    between atoms: _147  and  _148
REMARK   61  A    between atoms: _148  and  _149
REMARK   62  A    between atoms: _154  and  _156
REMARK   63  A    between atoms: _156  and  _157
REMARK   64  A    between atoms: _156  and  _159
REMARK   65  A    between atoms: _159  and  _160
REMARK   66  A    between atoms: _165  and  _166
REMARK   67  A    between atoms: _168  and  _170
REMARK   68  A    between atoms: _170  and  _171
REMARK   69  A    between atoms: _170  and  _173
REMARK   70  A    between atoms: _173  and  _174
REMARK   71  A    between atoms: _184  and  _186
REMARK   72  A    between atoms: _186  and  _187
REMARK   73  A    between atoms: _186  and  _189
REMARK   74  A    between atoms: _189  and  _190
REMARK   75  A    between atoms: _193  and  _195
REMARK   76  A    between atoms: _195  and  _196
REMARK   77  A    between atoms: _195  and  _198
REMARK   78  A    between atoms: _198  and  _199
REMARK   79  A    between atoms: _202  and  _204
REMARK   80  A    between atoms: _204  and  _205
REMARK   81  A    between atoms: _204  and  _207
REMARK   82  A    between atoms: _207  and  _208
REMARK   83  A    between atoms: _210  and  _212
REMARK   84  A    between atoms: _212  and  _213
REMARK   85  A    between atoms: _212  and  _215
REMARK   86  A    between atoms: _215  and  _216
REMARK   87  A    between atoms: _216  and  _217
REMARK   88  A    between atoms: _222  and  _224
REMARK   89  A    between atoms: _224  and  _225
REMARK   90  A    between atoms: _224  and  _227
REMARK   91  A    between atoms: _227  and  _228
REMARK   92  A    between atoms: _233  and  _234
REMARK   93  A    between atoms: _236  and  _238
REMARK   94  A    between atoms: _238  and  _239
REMARK   95  A    between atoms: _238  and  _241
REMARK   96  A    between atoms: _243  and  _245
REMARK   97  A    between atoms: _245  and  _246
REMARK   98  A    between atoms: _245  and  _248
REMARK   99  A    between atoms: _248  and  _249
REMARK  100  A    between atoms: _251  and  _253
REMARK  101  A    between atoms: _253  and  _254
REMARK  102  A    between atoms: _253  and  _256
REMARK  103  A    between atoms: _256  and  _257
REMARK  104  A    between atoms: _257  and  _258
REMARK  105  A    between atoms: _258  and  _259
REMARK  106  A    between atoms: _268  and  _270
REMARK  107  A    between atoms: _270  and  _271
REMARK  108  A    between atoms: _270  and  _273
REMARK  109  A    between atoms: _273  and  _274
REMARK  110  A    between atoms: _276  and  _278
REMARK  111  A    between atoms: _278  and  _279
REMARK  112  A    between atoms: _278  and  _281
REMARK  113  A    between atoms: _281  and  _282
REMARK  114  A    between atoms: _282  and  _283
REMARK  115  A    between atoms: _286  and  _288
REMARK  116  A    between atoms: _288  and  _289
REMARK  117  A    between atoms: _288  and  _291
REMARK  118  A    between atoms: _291  and  _292
REMARK  119  A    between atoms: _292  and  _293
REMARK  120  A    between atoms: _293  and  _294
REMARK  121  A    between atoms: _294  and  _295
REMARK  122  A    between atoms: _299  and  _301
REMARK  123  A    between atoms: _301  and  _302
REMARK  124  A    between atoms: _301  and  _304
REMARK  125  A    between atoms: _304  and  _305
REMARK  126  A    between atoms: _305  and  _306
REMARK  127  A    between atoms: _306  and  _307
REMARK  128  A    between atoms: _307  and  _308
REMARK  129  A    between atoms: _313  and  _314
REMARK  130  A    between atoms: _319  and  _321
REMARK  131  A    between atoms: _321  and  _322
REMARK  132  A    between atoms: _321  and  _324
REMARK  133  A    between atoms: _324  and  _325
REMARK  134  A    between atoms: _328  and  _330
REMARK  135  A    between atoms: _330  and  _331
REMARK  136  A    between atoms: _330  and  _333
REMARK  137  A    between atoms: _333  and  _334
REMARK  138  A    between atoms: _340  and  _342
REMARK  139  A    between atoms: _342  and  _343
REMARK  140  A    between atoms: _342  and  _345
REMARK  141  A    between atoms: _345  and  _346
REMARK  142  A    between atoms: _351  and  _352
REMARK  143  A    between atoms: _354  and  _356
REMARK  144  A    between atoms: _356  and  _357
REMARK  145  A    between atoms: _356  and  _359
REMARK  146  A    between atoms: _359  and  _360
REMARK  147  A    between atoms: _365  and  _367
REMARK  148  A    between atoms: _367  and  _368
REMARK  149  A    between atoms: _367  and  _370
REMARK  150  A    between atoms: _370  and  _371
REMARK  151  A    between atoms: _371  and  _372
REMARK  152  A    between atoms: _377  and  _379
REMARK  153  A    between atoms: _379  and  _380
REMARK  154  A    between atoms: _379  and  _382
REMARK  155  A    between atoms: _382  and  _383
REMARK  156  A    between atoms: _386  and  _388
REMARK  157  A    between atoms: _388  and  _389
REMARK  158  A    between atoms: _388  and  _391
REMARK  159  A    between atoms: _391  and  _392
REMARK  160  A    between atoms: _392  and  _393
REMARK  161  A    between atoms: _393  and  _394
REMARK  162  A    between atoms: _394  and  _395
REMARK  163  A    between atoms: _399  and  _401
REMARK  164  A    between atoms: _401  and  _402
REMARK  165  A    between atoms: _405  and  _407
REMARK  166  A    between atoms: _407  and  _408
REMARK  167  A    between atoms: _407  and  _410
REMARK  168  A    between atoms: _410  and  _411
REMARK  169  A    between atoms: _417  and  _419
REMARK  170  A    between atoms: _419  and  _420
REMARK  171  A    between atoms: _419  and  _422
REMARK  172  A    between atoms: _422  and  _423
REMARK  173  A    between atoms: _426  and  _428
REMARK  174  A    between atoms: _428  and  _429
REMARK  175  A    between atoms: _428  and  _431
REMARK  176  A    between atoms: _431  and  _432
REMARK  177  A    between atoms: _435  and  _437
REMARK  178  A    between atoms: _437  and  _438
REMARK  179  A    between atoms: _437  and  _440
REMARK  180  A    between atoms: _443  and  _445
REMARK  181  A    between atoms: _445  and  _446
REMARK  182  A    between atoms: _445  and  _448
REMARK  183  A    between atoms: _448  and  _449
REMARK  184  A    between atoms: _449  and  _450
REMARK  185  A    between atoms: _450  and  _451
REMARK  186  A    between atoms: _451  and  _452
REMARK  187  A    between atoms: _456  and  _458
REMARK  188  A    between atoms: _458  and  _459
REMARK  189  A    between atoms: _458  and  _461
REMARK  190  A    between atoms: _461  and  _462
REMARK  191  A    between atoms: _462  and  _463
REMARK  192  A    between atoms: _468  and  _470
REMARK  193  A    between atoms: _470  and  _471
REMARK  194  A    between atoms: _470  and  _473
REMARK  195  A    between atoms: _473  and  _474
REMARK  196  A    between atoms: _480  and  _482
REMARK  197  A    between atoms: _482  and  _483
REMARK  198  A    between atoms: _482  and  _485
REMARK  199  A    between atoms: _485  and  _486
REMARK  200  A    between atoms: _490  and  _491
REMARK  201  A    between atoms: _497  and  _498
REMARK  202  A    between atoms: _503  and  _505
REMARK  203  A    between atoms: _505  and  _506
REMARK  204  A    between atoms: _505  and  _508
REMARK  205  A    between atoms: _508  and  _509
REMARK  206  A    between atoms: _512  and  _514
REMARK  207  A    between atoms: _514  and  _515
REMARK  208  A    between atoms: _514  and  _517
REMARK  209  A    between atoms: _517  and  _518
REMARK  210  A    between atoms: _523  and  _525
REMARK  211  A    between atoms: _525  and  _526
REMARK  212  A    between atoms: _525  and  _528
REMARK  213  A    between atoms: _528  and  _529
REMARK  214  A    between atoms: _532  and  _534
REMARK  215  A    between atoms: _534  and  _535
REMARK  216  A    between atoms: _534  and  _537
REMARK  217  A    between atoms: _537  and  _538
REMARK  218  A    between atoms: _538  and  _539
REMARK  219  A    between atoms: _542  and  _544
REMARK  220  A    between atoms: _544  and  _545
REMARK  221  A    between atoms: _547  and  _549
REMARK  222  A    between atoms: _549  and  _550
REMARK  223  A    between atoms: _549  and  _552
REMARK  224  A    between atoms: _552  and  _553
REMARK  225  A    between atoms: _556  and  _558
REMARK  226  A    between atoms: _558  and  _559
REMARK  227  A    between atoms: _562  and  _564
REMARK  228  A    between atoms: _564  and  _565
REMARK  229  A    between atoms: _564  and  _567
REMARK  230  A    between atoms: _567  and  _568
REMARK  231  A    between atoms: _571  and  _572
REMARK  232  A    between atoms: _577  and  _579
REMARK  233  A    between atoms: _579  and  _580
REMARK  234  A    between atoms: _579  and  _582
REMARK  235  A    between atoms: _582  and  _583
REMARK  236  A    between atoms: _589  and  _591
REMARK  237  A    between atoms: _591  and  _592
REMARK  238  A    between atoms: _591  and  _594
REMARK  239  A    between atoms: _597  and  _599
REMARK  240  A    between atoms: _599  and  _600
REMARK  241  A    between atoms: _599  and  _602
REMARK  242  A    between atoms: _602  and  _603
REMARK  243  A    between atoms: _603  and  _604
REMARK  244  A    between atoms: _607  and  _609
REMARK  245  A    between atoms: _609  and  _610
REMARK  246  A    between atoms: _609  and  _612
REMARK  247  A    between atoms: _612  and  _613
REMARK                            x       y       z     vdW  Elec       q    Type
REMARK                         _______ _______ _______ _____ _____    ______ ____
ROOT
ATOM      1  CB  PHE A   1      58.690  43.843  40.888  0.00  0.00    +0.051 C 
ENDROOT
BRANCH   1   2
ATOM      2  CG  PHE A   1      58.904  42.351  41.011  0.00  0.00    -0.020 A 
ATOM      3  CD2 PHE A   1      58.533  41.673  42.170  0.00  0.00    -0.004 A 
ATOM      4  CE2 PHE A   1      58.777  40.306  42.306  0.00  0.00    -0.000 A 
ATOM      5  CZ  PHE A   1      59.395  39.607  41.274  0.00  0.00    -0.000 A 
ATOM      6  CE1 PHE A   1      59.766  40.271  40.111  0.00  0.00    -0.000 A 
ATOM      7  CD1 PHE A   1      59.519  41.639  39.986  0.00  0.00    -0.004 A 
ENDBRANCH   1   2
BRANCH   1   8
ATOM      8  CA  PHE A   1      59.847  44.671  41.450  0.00  0.00    +0.137 C 
BRANCH   8   9
ATOM      9  N   PHE A   1      61.105  44.140  40.945  0.00  0.00    -0.239 NA
ATOM     10  H   PHE A   1      61.666  43.480  41.521  0.00  0.00    +0.142 HD
ENDBRANCH   8   9
BRANCH   8  11
ATOM     11  C   PHE A   1      59.735  44.665  42.960  0.00  0.00    +0.224 C 
ATOM     12  O   PHE A   1      60.461  43.963  43.665  0.00  0.00    -0.287 OA
ENDBRANCH   8  11
ENDBRANCH   1   8
TORSDOF 4
REMARK  Name = ../refined-set-2016/1zhy/1zhy_pocket.pdb
REMARK  247 active torsions:
REMARK  status: ('A' for Active; 'I' for Inactive)
REMARK    1  A    between atoms: _1  and  _3
REMARK    2  A    between atoms: _3  and  _4
REMARK    3  A    between atoms: _3  and  _6
REMARK    4  A    between atoms: _6  and  _7
REMARK    5  A    between atoms: _17  and  _19
REMARK    6  A    between atoms: _19  and  _20
REMARK    7  A    between atoms: _19  and  _22
REMARK    8  A    between atoms: _22  and  _23
REMARK    9  A    between atoms: _29  and  _31
REMARK   10  A    between atoms: _31  and  _32
REMARK   11  A    between atoms: _31  and  _34
REMARK   12  A    between atoms: _34  and  _35
REMARK   13  A    between atoms: _38  and  _40
REMARK   14  A    between atoms: _40  and  _41
REMARK   15  A    between atoms: _40  and  _43
REMARK   16  A    between atoms: _43  and  _44
REMARK   17  A    between atoms: _47  and  _49
REMARK   18  A    between atoms: _49  and  _50
REMARK   19  A    between atoms: _49  and  _52
REMARK   20  A    between atoms: _52  and  _53
REMARK   21  A    between atoms: _55  and  _57
REMARK   22  A    between atoms: _57  and  _58
REMARK   23  A    between atoms: _57  and  _60
REMARK   24  A    between atoms: _60  and  _61
REMARK   25  A    between atoms: _64  and  _66
REMARK   26  A    between atoms: _66  and  _67
REMARK   27  A    between atoms: _71  and  _72
REMARK   28  A    between atoms: _77  and  _79
REMARK   29  A    between atoms: _79  and  _80
REMARK   30  A    between atoms: _79  and  _82
REMARK   31  A    between atoms: _82  and  _83
REMARK   32  A    between atoms: _86  and  _88
REMARK   33  A    between atoms: _88  and  _89
REMARK   34  A    between atoms: _88  and  _91
REMARK   35  A    between atoms: _91  and  _92
REMARK   36  A    between atoms: _95  and  _97
REMARK   37  A    between atoms: _97  and  _98
REMARK   38  A    between atoms: _97  and  _100
REMARK   39  A    between atoms: _100  and  _101
REMARK   40  A    between atoms: _103  and  _105
REMARK   41  A    between atoms: _105  and  _106
REMARK   42  A    between atoms: _105  and  _108
REMARK   43  A    between atoms: _108  and  _109
REMARK   44  A    between atoms: _112  and  _114
REMARK   45  A    between atoms: _114  and  _115
REMARK   46  A    between atoms: _114  and  _117
REMARK   47  A    between atoms: _117  and  _118
REMARK   48  A    between atoms: _118  and  _119
REMARK   49  A    between atoms: _122  and  _124
REMARK   50  A    between atoms: _124  and  _125
REMARK   51  A    between atoms: _124  and  _127
REMARK   52  A    between atoms: _127  and  _128
REMARK   53  A    between atoms: _134  and  _136
REMARK   54  A    between atoms: _136  and  _137
REMARK   55  A    between atoms: _136  and  _139
REMARK   56  A    between atoms: _139  and  _140
REMARK   57  A    between atoms: _142  and  _144
REMARK   58  A    between atoms: _144  and  _145
REMARK   59  A    between atoms: _144  and  _147
REMARK   60  A    between atoms: _147  and  _148
REMARK   61  A    between atoms: _148  and  _149
REMARK   62  A    between atoms: _154  and  _156
REMARK   63  A    between atoms: _156  and  _157
REMARK   64  A    between atoms: _156  and  _159
REMARK   65  A    between atoms: _159  and  _160
REMARK   66  A    between atoms: _165  and  _166
REMARK   67  A    between atoms: _168  and  _170
REMARK   68  A    between atoms: _170  and  _171
REMARK   69  A    between atoms: _170  and  _173
REMARK   70  A    between atoms: _173  and  _174
REMARK   71  A    between atoms: _184  and  _186
REMARK   72  A    between atoms: _186  and  _187
REMARK   73  A    between atoms: _186  and  _189
REMARK   74  A    between atoms: _189  and  _190
REMARK   75  A    between atoms: _193  and  _195
REMARK   76  A    between atoms: _195  and  _196
REMARK   77  A    between atoms: _195  and  _198
REMARK   78  A    between atoms: _198  and  _199
REMARK   79  A    between atoms: _202  and  _204
REMARK   80  A    between atoms: _204  and  _205
REMARK   81  A    between atoms: _204  and  _207
REMARK   82  A    between atoms: _207  and  _208
REMARK   83  A    between atoms: _210  and  _212
REMARK   84  A    between atoms: _212  and  _213
REMARK   85  A    between atoms: _212  and  _215
REMARK   86  A    between atoms: _215  and  _216
REMARK   87  A    between atoms: _216  and  _217
REMARK   88  A    between atoms: _222  and  _224
REMARK   89  A    between atoms: _224  and  _225
REMARK   90  A    between atoms: _224  and  _227
REMARK   91  A    between atoms: _227  and  _228
REMARK   92  A    between atoms: _233  and  _234
REMARK   93  A    between atoms: _236  and  _238
REMARK   94  A    between atoms: _238  and  _239
REMARK   95  A    between atoms: _238  and  _241
REMARK   96  A    between atoms: _243  and  _245
REMARK   97  A    between atoms: _245  and  _246
REMARK   98  A    between atoms: _245  and  _248
REMARK   99  A    between atoms: _248  and  _249
REMARK  100  A    between atoms: _251  and  _253
REMARK  101  A    between atoms: _253  and  _254
REMARK  102  A    between atoms: _253  and  _256
REMARK  103  A    between atoms: _256  and  _257
REMARK  104  A    between atoms: _257  and  _258
REMARK  105  A    between atoms: _258  and  _259
REMARK  106  A    between atoms: _268  and  _270
REMARK  107  A    between atoms: _270  and  _271
REMARK  108  A    between atoms: _270  and  _273
REMARK  109  A    between atoms: _273  and  _274
REMARK  110  A    between atoms: _276  and  _278
REMARK  111  A    between atoms: _278  and  _279
REMARK  112  A    between atoms: _278  and  _281
REMARK  113  A    between atoms: _281  and  _282
REMARK  114  A    between atoms: _282  and  _283
REMARK  115  A    between atoms: _286  and  _288
REMARK  116  A    between atoms: _288  and  _289
REMARK  117  A    between atoms: _288  and  _291
REMARK  118  A    between atoms: _291  and  _292
REMARK  119  A    between atoms: _292  and  _293
REMARK  120  A    between atoms: _293  and  _294
REMARK  121  A    between atoms: _294  and  _295
REMARK  122  A    between atoms: _299  and  _301
REMARK  123  A    between atoms: _301  and  _302
REMARK  124  A    between atoms: _301  and  _304
REMARK  125  A    between atoms: _304  and  _305
REMARK  126  A    between atoms: _305  and  _306
REMARK  127  A    between atoms: _306  and  _307
REMARK  128  A    between atoms: _307  and  _308
REMARK  129  A    between atoms: _313  and  _314
REMARK  130  A    between atoms: _319  and  _321
REMARK  131  A    between atoms: _321  and  _322
REMARK  132  A    between atoms: _321  and  _324
REMARK  133  A    between atoms: _324  and  _325
REMARK  134  A    between atoms: _328  and  _330
REMARK  135  A    between atoms: _330  and  _331
REMARK  136  A    between atoms: _330  and  _333
REMARK  137  A    between atoms: _333  and  _334
REMARK  138  A    between atoms: _340  and  _342
REMARK  139  A    between atoms: _342  and  _343
REMARK  140  A    between atoms: _342  and  _345
REMARK  141  A    between atoms: _345  and  _346
REMARK  142  A    between atoms: _351  and  _352
REMARK  143  A    between atoms: _354  and  _356
REMARK  144  A    between atoms: _356  and  _357
REMARK  145  A    between atoms: _356  and  _359
REMARK  146  A    between atoms: _359  and  _360
REMARK  147  A    between atoms: _365  and  _367
REMARK  148  A    between atoms: _367  and  _368
REMARK  149  A    between atoms: _367  and  _370
REMARK  150  A    between atoms: _370  and  _371
REMARK  151  A    between atoms: _371  and  _372
REMARK  152  A    between atoms: _377  and  _379
REMARK  153  A    between atoms: _379  and  _380
REMARK  154  A    between atoms: _379  and  _382
REMARK  155  A    between atoms: _382  and  _383
REMARK  156  A    between atoms: _386  and  _388
REMARK  157  A    between atoms: _388  and  _389
REMARK  158  A    between atoms: _388  and  _391
REMARK  159  A    between atoms: _391  and  _392
REMARK  160  A    between atoms: _392  and  _393
REMARK  161  A    between atoms: _393  and  _394
REMARK  162  A    between atoms: _394  and  _395
REMARK  163  A    between atoms: _399  and  _401
REMARK  164  A    between atoms: _401  and  _402
REMARK  165  A    between atoms: _405  and  _407
REMARK  166  A    between atoms: _407  and  _408
REMARK  167  A    between atoms: _407  and  _410
REMARK  168  A    between atoms: _410  and  _411
REMARK  169  A    between atoms: _417  and  _419
REMARK  170  A    between atoms: _419  and  _420
REMARK  171  A    between atoms: _419  and  _422
REMARK  172  A    between atoms: _422  and  _423
REMARK  173  A    between atoms: _426  and  _428
REMARK  174  A    between atoms: _428  and  _429
REMARK  175  A    between atoms: _428  and  _431
REMARK  176  A    between atoms: _431  and  _432
REMARK  177  A    between atoms: _435  and  _437
REMARK  178  A    between atoms: _437  and  _438
REMARK  179  A    between atoms: _437  and  _440
REMARK  180  A    between atoms: _443  and  _445
REMARK  181  A    between atoms: _445  and  _446
REMARK  182  A    between atoms: _445  and  _448
REMARK  183  A    between atoms: _448  and  _449
REMARK  184  A    between atoms: _449  and  _450
REMARK  185  A    between atoms: _450  and  _451
REMARK  186  A    between atoms: _451  and  _452
REMARK  187  A    between atoms: _456  and  _458
REMARK  188  A    between atoms: _458  and  _459
REMARK  189  A    between atoms: _458  and  _461
REMARK  190  A    between atoms: _461  and  _462
REMARK  191  A    between atoms: _462  and  _463
REMARK  192  A    between atoms: _468  and  _470
REMARK  193  A    between atoms: _470  and  _471
REMARK  194  A    between atoms: _470  and  _473
REMARK  195  A    between atoms: _473  and  _474
REMARK  196  A    between atoms: _480  and  _482
REMARK  197  A    between atoms: _482  and  _483
REMARK  198  A    between atoms: _482  and  _485
REMARK  199  A    between atoms: _485  and  _486
REMARK  200  A    between atoms: _490  and  _491
REMARK  201  A    between atoms: _497  and  _498
REMARK  202  A    between atoms: _503  and  _505
REMARK  203  A    between atoms: _505  and  _506
REMARK  204  A    between atoms: _505  and  _508
REMARK  205  A    between atoms: _508  and  _509
REMARK  206  A    between atoms: _512  and  _514
REMARK  207  A    between atoms: _514  and  _515
REMARK  208  A    between atoms: _514  and  _517
REMARK  209  A    between atoms: _517  and  _518
REMARK  210  A    between atoms: _523  and  _525
REMARK  211  A    between atoms: _525  and  _526
REMARK  212  A    between atoms: _525  and  _528
REMARK  213  A    between atoms: _528  and  _529
REMARK  214  A    between atoms: _532  and  _534
REMARK  215  A    between atoms: _534  and  _535
REMARK  216  A    between atoms: _534  and  _537
REMARK  217  A    between atoms: _537  and  _538
REMARK  218  A    between atoms: _538  and  _539
REMARK  219  A    between atoms: _542  and  _544
REMARK  220  A    between atoms: _544  and  _545
REMARK  221  A    between atoms: _547  and  _549
REMARK  222  A    between atoms: _549  and  _550
REMARK  223  A    between atoms: _549  and  _552
REMARK  224  A    between atoms: _552  and  _553
REMARK  225  A    between atoms: _556  and  _558
REMARK  226  A    between atoms: _558  and  _559
REMARK  227  A    between atoms: _562  and  _564
REMARK  228  A    between atoms: _564  and  _565
REMARK  229  A    between atoms: _564  and  _567
REMARK  230  A    between atoms: _567  and  _568
REMARK  231  A    between atoms: _571  and  _572
REMARK  232  A    between atoms: _577  and  _579
REMARK  233  A    between atoms: _579  and  _580
REMARK  234  A    between atoms: _579  and  _582
REMARK  235  A    between atoms: _582  and  _583
REMARK  236  A    between atoms: _589  and  _591
REMARK  237  A    between atoms: _591  and  _592
REMARK  238  A    between atoms: _591  and  _594
REMARK  239  A    between atoms: _597  and  _599
REMARK  240  A    between atoms: _599  and  _600
REMARK  241  A    between atoms: _599  and  _602
REMARK  242  A    between atoms: _602  and  _603
REMARK  243  A    between atoms: _603  and  _604
REMARK  244  A    between atoms: _607  and  _609
REMARK  245  A    between atoms: _609  and  _610
REMARK  246  A    between atoms: _609  and  _612
REMARK  247  A    between atoms: _612  and  _613
REMARK                            x       y       z     vdW  Elec       q    Type
REMARK                         _______ _______ _______ _____ _____    ______ ____
ROOT
ATOM      1  CA  GLN A   3      64.955  36.604  34.253  0.00  0.00    +0.149 C 
ENDROOT
BRANCH   1   3
ATOM      2  C   ASN A   2      63.737  37.866  35.979  0.00  0.00    +0.241 C 
ATOM      3  N   GLN A   3      64.240  36.725  35.520  0.00  0.00    -0.297 N 
ATOM      4  H   GLN A   3      64.117  35.868  36.097  0.00  0.00    +0.150 HD
ATOM      5  O   ASN A   2      63.856  38.950  35.409  0.00  0.00    -0.273 OA
BRANCH   2   6
ATOM      6  CA  ASN A   2      62.994  37.751  37.297  0.00  0.00    +0.158 C 
BRANCH   6   9
ATOM      7  C   TYR A   1      63.298  38.760  39.477  0.00  0.00    +0.239 C 
ATOM      8  O   TYR A   1      63.280  37.668  40.058  0.00  0.00    -0.274 OA
ATOM      9  N   ASN A   2      63.187  38.895  38.165  0.00  0.00    -0.297 N 
ATOM     10  H   ASN A   2      63.240  39.846  37.747  0.00  0.00    +0.150 HD
BRANCH   7  11
ATOM     11  CA  TYR A   1      63.435  40.049  40.254  0.00  0.00    +0.149 C 
BRANCH  11  12
ATOM     12  N   TYR A   1      63.108  39.770  41.639  0.00  0.00    -0.238 NA
ATOM     13  H   TYR A   1      63.276  38.821  42.030  0.00  0.00    +0.142 HD
ENDBRANCH  11  12
BRANCH  11  14
ATOM     14  CB  TYR A   1      64.838  40.654  40.115  0.00  0.00    +0.053 C 
BRANCH  14  15
ATOM     15  CG  TYR A   1      65.980  39.689  40.306  0.00  0.00    -0.020 A 
ATOM     16  CD2 TYR A   1      66.495  39.437  41.572  0.00  0.00    -0.001 A 
ATOM     17  CE2 TYR A   1      67.549  38.561  41.756  0.00  0.00    +0.036 A 
ATOM     18  CZ  TYR A   1      68.107  37.922  40.663  0.00  0.00    +0.134 A 
ATOM     19  CE1 TYR A   1      67.619  38.155  39.390  0.00  0.00    +0.036 A 
ATOM     20  CD1 TYR A   1      66.554  39.035  39.215  0.00  0.00    -0.001 A 
BRANCH  18  21
ATOM     21  OH  TYR A   1      69.139  37.037  40.848  0.00  0.00    -0.506 OA
ATOM     22  HH  TYR A   1      69.420  36.672  39.972  0.00  0.00    +0.292 HD
ENDBRANCH  18  21
ENDBRANCH  14  15
ENDBRANCH  11  14
ENDBRANCH   7  11
ENDBRANCH   6   9
BRANCH   6  23
ATOM     23  CB  ASN A   2      61.494  37.586  37.023  0.00  0.00    +0.114 C 
BRANCH  23  24
ATOM     24  CG  ASN A   2      61.183  36.398  36.130  0.00  0.00    +0.222 C 
ATOM     25  ND2 ASN A   2      60.966  35.243  36.747  0.00  0.00    -0.329 N 
ATOM     26 HD21 ASN A   2      61.010  35.192  37.785  0.00  0.00    +0.145 HD
ATOM     27 HD22 ASN A   2      60.752  34.389  36.193  0.00  0.00    +0.145 HD
ATOM     28  OD1 ASN A   2      61.143  36.513  34.904  0.00  0.00    -0.275 OA
ENDBRANCH  23  24
ENDBRANCH   6  23
ENDBRANCH   2   6
ENDBRANCH   1   3
BRANCH   1  29
ATOM     29  C   GLN A   3      64.716  35.172  33.787  0.00  0.00    +0.241 C 
ATOM     30  O   GLN A   3      64.488  34.286  34.604  0.00  0.00    -0.273 OA
ATOM     31  N   ILE A   4      64.719  34.941  32.479  0.00  0.00    -0.297 N 
ATOM     32  H   ILE A   4      64.841  35.726  31.808  0.00  0.00    +0.150 HD
BRANCH  31  33
ATOM     33  CA  ILE A   4      64.550  33.581  31.995  0.00  0.00    +0.149 C 
BRANCH  33  34
ATOM     34  C   ILE A   4      65.588  33.237  30.942  0.00  0.00    +0.241 C 
ATOM     35  N   LYS A   5      65.750  31.944  30.724  0.00  0.00    -0.297 N 
ATOM     36  H   LYS A   5      65.229  31.266  31.316  0.00  0.00    +0.150 HD
ATOM     37  O   ILE A   4      66.240  34.111  30.371  0.00  0.00    -0.273 OA
BRANCH  35  38
ATOM     38  CA  LYS A   5      66.631  31.437  29.686  0.00  0.00    +0.149 C 
BRANCH  38  39
ATOM     39  C   LYS A   5      65.726  30.425  29.006  0.00  0.00    +0.241 C 
ATOM     40  O   LYS A   5      65.223  29.503  29.644  0.00  0.00    -0.273 OA
ATOM     41  N   ALA A   6      65.483  30.628  27.716  0.00  0.00    -0.298 N 
ATOM     42  H   ALA A   6      65.937  31.426  27.227  0.00  0.00    +0.150 HD
BRANCH  41  43
ATOM     43  CA  ALA A   6      64.592  29.750  26.980  0.00  0.00    +0.137 C 
ATOM     44  CB  ALA A   6      63.361  30.523  26.543  0.00  0.00    +0.030 C 
BRANCH  43  45
ATOM     45  C   ALA A   6      65.256  29.111  25.778  0.00  0.00    +0.227 C 
ATOM     46  O   ALA A   6      66.145  29.690  25.159  0.00  0.00    -0.286 OA
ENDBRANCH  43  45
ENDBRANCH  41  43
ENDBRANCH  38  39
BRANCH  38  47
ATOM     47  CB  LYS A   5      67.879  30.786  30.287  0.00  0.00    +0.029 C 
BRANCH  47  48
ATOM     48  CG  LYS A   5      68.799  31.824  30.928  0.00  0.00    +0.000 C 
BRANCH  48  49
ATOM     49  CD  LYS A   5      70.169  31.268  31.270  0.00  0.00    -0.024 C 
BRANCH  49  50
ATOM     50  CE  LYS A   5      71.062  32.364  31.839  0.00  0.00    -0.086 C 
BRANCH  50  51
ATOM     51  NZ  LYS A   5      72.412  31.860  32.202  0.00  0.00    +0.380 N 
ATOM     52  HZ1 LYS A   5      72.320  31.113  32.920  0.00  0.00    -0.089 HD
ATOM     53  HZ2 LYS A   5      72.981  32.642  32.584  0.00  0.00    -0.089 HD
ATOM     54  HZ3 LYS A   5      72.876  31.473  31.355  0.00  0.00    -0.089 HD
ENDBRANCH  50  51
ENDBRANCH  49  50
ENDBRANCH  48  49
ENDBRANCH  47  48
ENDBRANCH  38  47
ENDBRANCH  35  38
ENDBRANCH  33  34
BRANCH  33  55
ATOM     55  CB  ILE A   4      63.160  33.322  31.350  0.00  0.00    +0.027 C 
ATOM     56  CG2 ILE A   4      62.048  33.650  32.340  0.00  0.00    +0.002 C 
BRANCH  55  57
ATOM     57  CG1 ILE A   4      63.021  34.123  30.055  0.00  0.00    +0.002 C 
ATOM     58  CD1 ILE A   4      61.769  33.777  29.256  0.00  0.00    +0.000 C 
ENDBRANCH  55  57
ENDBRANCH  33  55
ENDBRANCH  31  33
ENDBRANCH   1  29
BRANCH   1  59
ATOM     59  CB  GLN A   3      66.458  36.825  34.459  0.00  0.00    +0.039 C 
BRANCH  59  60
ATOM     60  CG  GLN A   3      67.313  36.535  33.239  0.00  0.00    +0.087 C 
BRANCH  60  61
ATOM     61  CD  GLN A   3      68.800  36.688  33.526  0.00  0.00    +0.219 C 
ATOM     62  NE2 GLN A   3      69.126  37.162  34.722  0.00  0.00    -0.329 N 
ATOM     63 HE21 GLN A   3      68.381  37.409  35.404  0.00  0.00    +0.145 HD
ATOM     64 HE22 GLN A   3      70.127  37.286  34.977  0.00  0.00    +0.145 HD
ATOM     65  OE1 GLN A   3      69.640  36.380  32.681  0.00  0.00    -0.275 OA
ENDBRANCH  60  61
ENDBRANCH  59  60
ENDBRANCH   1  59
TORSDOF 27
REMARK  Name = ../refined-set-2016/1zhy/1zhy_pocket.pdb
REMARK  247 active torsions:
REMARK  status: ('A' for Active; 'I' for Inactive)
REMARK    1  A    between atoms: _1  and  _3
REMARK    2  A    between atoms: _3  and  _4
REMARK    3  A    between atoms: _3  and  _6
REMARK    4  A    between atoms: _6  and  _7
REMARK    5  A    between atoms: _17  and  _19
REMARK    6  A    between atoms: _19  and  _20
REMARK    7  A    between atoms: _19  and  _22
REMARK    8  A    between atoms: _22  and  _23
REMARK    9  A    between atoms: _29  and  _31
REMARK   10  A    between atoms: _31  and  _32
REMARK   11  A    between atoms: _31  and  _34
REMARK   12  A    between atoms: _34  and  _35
REMARK   13  A    between atoms: _38  and  _40
REMARK   14  A    between atoms: _40  and  _41
REMARK   15  A    between atoms: _40  and  _43
REMARK   16  A    between atoms: _43  and  _44
REMARK   17  A    between atoms: _47  and  _49
REMARK   18  A    between atoms: _49  and  _50
REMARK   19  A    between atoms: _49  and  _52
REMARK   20  A    between atoms: _52  and  _53
REMARK   21  A    between atoms: _55  and  _57
REMARK   22  A    between atoms: _57  and  _58
REMARK   23  A    between atoms: _57  and  _60
REMARK   24  A    between atoms: _60  and  _61
REMARK   25  A    between atoms: _64  and  _66
REMARK   26  A    between atoms: _66  and  _67
REMARK   27  A    between atoms: _71  and  _72
REMARK   28  A    between atoms: _77  and  _79
REMARK   29  A    between atoms: _79  and  _80
REMARK   30  A    between atoms: _79  and  _82
REMARK   31  A    between atoms: _82  and  _83
REMARK   32  A    between atoms: _86  and  _88
REMARK   33  A    between atoms: _88  and  _89
REMARK   34  A    between atoms: _88  and  _91
REMARK   35  A    between atoms: _91  and  _92
REMARK   36  A    between atoms: _95  and  _97
REMARK   37  A    between atoms: _97  and  _98
REMARK   38  A    between atoms: _97  and  _100
REMARK   39  A    between atoms: _100  and  _101
REMARK   40  A    between atoms: _103  and  _105
REMARK   41  A    between atoms: _105  and  _106
REMARK   42  A    between atoms: _105  and  _108
REMARK   43  A    between atoms: _108  and  _109
REMARK   44  A    between atoms: _112  and  _114
REMARK   45  A    between atoms: _114  and  _115
REMARK   46  A    between atoms: _114  and  _117
REMARK   47  A    between atoms: _117  and  _118
REMARK   48  A    between atoms: _118  and  _119
REMARK   49  A    between atoms: _122  and  _124
REMARK   50  A    between atoms: _124  and  _125
REMARK   51  A    between atoms: _124  and  _127
REMARK   52  A    between atoms: _127  and  _128
REMARK   53  A    between atoms: _134  and  _136
REMARK   54  A    between atoms: _136  and  _137
REMARK   55  A    between atoms: _136  and  _139
REMARK   56  A    between atoms: _139  and  _140
REMARK   57  A    between atoms: _142  and  _144
REMARK   58  A    between atoms: _144  and  _145
REMARK   59  A    between atoms: _144  and  _147
REMARK   60  A    between atoms: _147  and  _148
REMARK   61  A    between atoms: _148  and  _149
REMARK   62  A    between atoms: _154  and  _156
REMARK   63  A    between atoms: _156  and  _157
REMARK   64  A    between atoms: _156  and  _159
REMARK   65  A    between atoms: _159  and  _160
REMARK   66  A    between atoms: _165  and  _166
REMARK   67  A    between atoms: _168  and  _170
REMARK   68  A    between atoms: _170  and  _171
REMARK   69  A    between atoms: _170  and  _173
REMARK   70  A    between atoms: _173  and  _174
REMARK   71  A    between atoms: _184  and  _186
REMARK   72  A    between atoms: _186  and  _187
REMARK   73  A    between atoms: _186  and  _189
REMARK   74  A    between atoms: _189  and  _190
REMARK   75  A    between atoms: _193  and  _195
REMARK   76  A    between atoms: _195  and  _196
REMARK   77  A    between atoms: _195  and  _198
REMARK   78  A    between atoms: _198  and  _199
REMARK   79  A    between atoms: _202  and  _204
REMARK   80  A    between atoms: _204  and  _205
REMARK   81  A    between atoms: _204  and  _207
REMARK   82  A    between atoms: _207  and  _208
REMARK   83  A    between atoms: _210  and  _212
REMARK   84  A    between atoms: _212  and  _213
REMARK   85  A    between atoms: _212  and  _215
REMARK   86  A    between atoms: _215  and  _216
REMARK   87  A    between atoms: _216  and  _217
REMARK   88  A    between atoms: _222  and  _224
REMARK   89  A    between atoms: _224  and  _225
REMARK   90  A    between atoms: _224  and  _227
REMARK   91  A    between atoms: _227  and  _228
REMARK   92  A    between atoms: _233  and  _234
REMARK   93  A    between atoms: _236  and  _238
REMARK   94  A    between atoms: _238  and  _239
REMARK   95  A    between atoms: _238  and  _241
REMARK   96  A    between atoms: _243  and  _245
REMARK   97  A    between atoms: _245  and  _246
REMARK   98  A    between atoms: _245  and  _248
REMARK   99  A    between atoms: _248  and  _249
REMARK  100  A    between atoms: _251  and  _253
REMARK  101  A    between atoms: _253  and  _254
REMARK  102  A    between atoms: _253  and  _256
REMARK  103  A    between atoms: _256  and  _257
REMARK  104  A    between atoms: _257  and  _258
REMARK  105  A    between atoms: _258  and  _259
REMARK  106  A    between atoms: _268  and  _270
REMARK  107  A    between atoms: _270  and  _271
REMARK  108  A    between atoms: _270  and  _273
REMARK  109  A    between atoms: _273  and  _274
REMARK  110  A    between atoms: _276  and  _278
REMARK  111  A    between atoms: _278  and  _279
REMARK  112  A    between atoms: _278  and  _281
REMARK  113  A    between atoms: _281  and  _282
REMARK  114  A    between atoms: _282  and  _283
REMARK  115  A    between atoms: _286  and  _288
REMARK  116  A    between atoms: _288  and  _289
REMARK  117  A    between atoms: _288  and  _291
REMARK  118  A    between atoms: _291  and  _292
REMARK  119  A    between atoms: _292  and  _293
REMARK  120  A    between atoms: _293  and  _294
REMARK  121  A    between atoms: _294  and  _295
REMARK  122  A    between atoms: _299  and  _301
REMARK  123  A    between atoms: _301  and  _302
REMARK  124  A    between atoms: _301  and  _304
REMARK  125  A    between atoms: _304  and  _305
REMARK  126  A    between atoms: _305  and  _306
REMARK  127  A    between atoms: _306  and  _307
REMARK  128  A    between atoms: _307  and  _308
REMARK  129  A    between atoms: _313  and  _314
REMARK  130  A    between atoms: _319  and  _321
REMARK  131  A    between atoms: _321  and  _322
REMARK  132  A    between atoms: _321  and  _324
REMARK  133  A    between atoms: _324  and  _325
REMARK  134  A    between atoms: _328  and  _330
REMARK  135  A    between atoms: _330  and  _331
REMARK  136  A    between atoms: _330  and  _333
REMARK  137  A    between atoms: _333  and  _334
REMARK  138  A    between atoms: _340  and  _342
REMARK  139  A    between atoms: _342  and  _343
REMARK  140  A    between atoms: _342  and  _345
REMARK  141  A    between atoms: _345  and  _346
REMARK  142  A    between atoms: _351  and  _352
REMARK  143  A    between atoms: _354  and  _356
REMARK  144  A    between atoms: _356  and  _357
REMARK  145  A    between atoms: _356  and  _359
REMARK  146  A    between atoms: _359  and  _360
REMARK  147  A    between atoms: _365  and  _367
REMARK  148  A    between atoms: _367  and  _368
REMARK  149  A    between atoms: _367  and  _370
REMARK  150  A    between atoms: _370  and  _371
REMARK  151  A    between atoms: _371  and  _372
REMARK  152  A    between atoms: _377  and  _379
REMARK  153  A    between atoms: _379  and  _380
REMARK  154  A    between atoms: _379  and  _382
REMARK  155  A    between atoms: _382  and  _383
REMARK  156  A    between atoms: _386  and  _388
REMARK  157  A    between atoms: _388  and  _389
REMARK  158  A    between atoms: _388  and  _391
REMARK  159  A    between atoms: _391  and  _392
REMARK  160  A    between atoms: _392  and  _393
REMARK  161  A    between atoms: _393  and  _394
REMARK  162  A    between atoms: _394  and  _395
REMARK  163  A    between atoms: _399  and  _401
REMARK  164  A    between atoms: _401  and  _402
REMARK  165  A    between atoms: _405  and  _407
REMARK  166  A    between atoms: _407  and  _408
REMARK  167  A    between atoms: _407  and  _410
REMARK  168  A    between atoms: _410  and  _411
REMARK  169  A    between atoms: _417  and  _419
REMARK  170  A    between atoms: _419  and  _420
REMARK  171  A    between atoms: _419  and  _422
REMARK  172  A    between atoms: _422  and  _423
REMARK  173  A    between atoms: _426  and  _428
REMARK  174  A    between atoms: _428  and  _429
REMARK  175  A    between atoms: _428  and  _431
REMARK  176  A    between atoms: _431  and  _432
REMARK  177  A    between atoms: _435  and  _437
REMARK  178  A    between atoms: _437  and  _438
REMARK  179  A    between atoms: _437  and  _440
REMARK  180  A    between atoms: _443  and  _445
REMARK  181  A    between atoms: _445  and  _446
REMARK  182  A    between atoms: _445  and  _448
REMARK  183  A    between atoms: _448  and  _449
REMARK  184  A    between atoms: _449  and  _450
REMARK  185  A    between atoms: _450  and  _451
REMARK  186  A    between atoms: _451  and  _452
REMARK  187  A    between atoms: _456  and  _458
REMARK  188  A    between atoms: _458  and  _459
REMARK  189  A    between atoms: _458  and  _461
REMARK  190  A    between atoms: _461  and  _462
REMARK  191  A    between atoms: _462  and  _463
REMARK  192  A    between atoms: _468  and  _470
REMARK  193  A    between atoms: _470  and  _471
REMARK  194  A    between atoms: _470  and  _473
REMARK  195  A    between atoms: _473  and  _474
REMARK  196  A    between atoms: _480  and  _482
REMARK  197  A    between atoms: _482  and  _483
REMARK  198  A    between atoms: _482  and  _485
REMARK  199  A    between atoms: _485  and  _486
REMARK  200  A    between atoms: _490  and  _491
REMARK  201  A    between atoms: _497  and  _498
REMARK  202  A    between atoms: _503  and  _505
REMARK  203  A    between atoms: _505  and  _506
REMARK  204  A    between atoms: _505  and  _508
REMARK  205  A    between atoms: _508  and  _509
REMARK  206  A    between atoms: _512  and  _514
REMARK  207  A    between atoms: _514  and  _515
REMARK  208  A    between atoms: _514  and  _517
REMARK  209  A    between atoms: _517  and  _518
REMARK  210  A    between atoms: _523  and  _525
REMARK  211  A    between atoms: _525  and  _526
REMARK  212  A    between atoms: _525  and  _528
REMARK  213  A    between atoms: _528  and  _529
REMARK  214  A    between atoms: _532  and  _534
REMARK  215  A    between atoms: _534  and  _535
REMARK  216  A    between atoms: _534  and  _537
REMARK  217  A    between atoms: _537  and  _538
REMARK  218  A    between atoms: _538  and  _539
REMARK  219  A    between atoms: _542  and  _544
REMARK  220  A    between atoms: _544  and  _545
REMARK  221  A    between atoms: _547  and  _549
REMARK  222  A    between atoms: _549  and  _550
REMARK  223  A    between atoms: _549  and  _552
REMARK  224  A    between atoms: _552  and  _553
REMARK  225  A    between atoms: _556  and  _558
REMARK  226  A    between atoms: _558  and  _559
REMARK  227  A    between atoms: _562  and  _564
REMARK  228  A    between atoms: _564  and  _565
REMARK  229  A    between atoms: _564  and  _567
REMARK  230  A    between atoms: _567  and  _568
REMARK  231  A    between atoms: _571  and  _572
REMARK  232  A    between atoms: _577  and  _579
REMARK  233  A    between atoms: _579  and  _580
REMARK  234  A    between atoms: _579  and  _582
REMARK  235  A    between atoms: _582  and  _583
REMARK  236  A    between atoms: _589  and  _591
REMARK  237  A    between atoms: _591  and  _592
REMARK  238  A    between atoms: _591  and  _594
REMARK  239  A    between atoms: _597  and  _599
REMARK  240  A    between atoms: _599  and  _600
REMARK  241  A    between atoms: _599  and  _602
REMARK  242  A    between atoms: _602  and  _603
REMARK  243  A    between atoms: _603  and  _604
REMARK  244  A    between atoms: _607  and  _609
REMARK  245  A    between atoms: _609  and  _610
REMARK  246  A    between atoms: _609  and  _612
REMARK  247  A    between atoms: _612  and  _613
REMARK                            x       y       z     vdW  Elec       q    Type
REMARK                         _______ _______ _______ _____ _____    ______ ____
ROOT
ATOM      1  CB  PHE A   1      62.868  25.507  20.561  0.00  0.00    +0.051 C 
ENDROOT
BRANCH   1   2
ATOM      2  CG  PHE A   1      62.122  26.805  20.575  0.00  0.00    -0.020 A 
ATOM      3  CD2 PHE A   1      60.732  26.820  20.620  0.00  0.00    -0.004 A 
ATOM      4  CE2 PHE A   1      60.028  28.021  20.593  0.00  0.00    -0.000 A 
ATOM      5  CZ  PHE A   1      60.717  29.224  20.520  0.00  0.00    -0.000 A 
ATOM      6  CE1 PHE A   1      62.110  29.223  20.477  0.00  0.00    -0.000 A 
ATOM      7  CD1 PHE A   1      62.804  28.017  20.506  0.00  0.00    -0.004 A 
ENDBRANCH   1   2
BRANCH   1   8
ATOM      8  CA  PHE A   1      63.310  25.013  21.943  0.00  0.00    +0.137 C 
BRANCH   8   9
ATOM      9  N   PHE A   1      64.322  25.890  22.526  0.00  0.00    -0.239 NA
ATOM     10  H   PHE A   1      65.113  26.226  21.941  0.00  0.00    +0.142 HD
ENDBRANCH   8   9
BRANCH   8  11
ATOM     11  C   PHE A   1      63.817  23.589  21.773  0.00  0.00    +0.224 C 
ATOM     12  O   PHE A   1      64.970  23.371  21.401  0.00  0.00    -0.287 OA
ENDBRANCH   8  11
ENDBRANCH   1   8
TORSDOF 4
REMARK  Name = ../refined-set-2016/1zhy/1zhy_pocket.pdb
REMARK  247 active torsions:
REMARK  status: ('A' for Active; 'I' for Inactive)
REMARK    1  A    between atoms: _1  and  _3
REMARK    2  A    between atoms: _3  and  _4
REMARK    3  A    between atoms: _3  and  _6
REMARK    4  A    between atoms: _6  and  _7
REMARK    5  A    between atoms: _17  and  _19
REMARK    6  A    between atoms: _19  and  _20
REMARK    7  A    between atoms: _19  and  _22
REMARK    8  A    between atoms: _22  and  _23
REMARK    9  A    between atoms: _29  and  _31
REMARK   10  A    between atoms: _31  and  _32
REMARK   11  A    between atoms: _31  and  _34
REMARK   12  A    between atoms: _34  and  _35
REMARK   13  A    between atoms: _38  and  _40
REMARK   14  A    between atoms: _40  and  _41
REMARK   15  A    between atoms: _40  and  _43
REMARK   16  A    between atoms: _43  and  _44
REMARK   17  A    between atoms: _47  and  _49
REMARK   18  A    between atoms: _49  and  _50
REMARK   19  A    between atoms: _49  and  _52
REMARK   20  A    between atoms: _52  and  _53
REMARK   21  A    between atoms: _55  and  _57
REMARK   22  A    between atoms: _57  and  _58
REMARK   23  A    between atoms: _57  and  _60
REMARK   24  A    between atoms: _60  and  _61
REMARK   25  A    between atoms: _64  and  _66
REMARK   26  A    between atoms: _66  and  _67
REMARK   27  A    between atoms: _71  and  _72
REMARK   28  A    between atoms: _77  and  _79
REMARK   29  A    between atoms: _79  and  _80
REMARK   30  A    between atoms: _79  and  _82
REMARK   31  A    between atoms: _82  and  _83
REMARK   32  A    between atoms: _86  and  _88
REMARK   33  A    between atoms: _88  and  _89
REMARK   34  A    between atoms: _88  and  _91
REMARK   35  A    between atoms: _91  and  _92
REMARK   36  A    between atoms: _95  and  _97
REMARK   37  A    between atoms: _97  and  _98
REMARK   38  A    between atoms: _97  and  _100
REMARK   39  A    between atoms: _100  and  _101
REMARK   40  A    between atoms: _103  and  _105
REMARK   41  A    between atoms: _105  and  _106
REMARK   42  A    between atoms: _105  and  _108
REMARK   43  A    between atoms: _108  and  _109
REMARK   44  A    between atoms: _112  and  _114
REMARK   45  A    between atoms: _114  and  _115
REMARK   46  A    between atoms: _114  and  _117
REMARK   47  A    between atoms: _117  and  _118
REMARK   48  A    between atoms: _118  and  _119
REMARK   49  A    between atoms: _122  and  _124
REMARK   50  A    between atoms: _124  and  _125
REMARK   51  A    between atoms: _124  and  _127
REMARK   52  A    between atoms: _127  and  _128
REMARK   53  A    between atoms: _134  and  _136
REMARK   54  A    between atoms: _136  and  _137
REMARK   55  A    between atoms: _136  and  _139
REMARK   56  A    between atoms: _139  and  _140
REMARK   57  A    between atoms: _142  and  _144
REMARK   58  A    between atoms: _144  and  _145
REMARK   59  A    between atoms: _144  and  _147
REMARK   60  A    between atoms: _147  and  _148
REMARK   61  A    between atoms: _148  and  _149
REMARK   62  A    between atoms: _154  and  _156
REMARK   63  A    between atoms: _156  and  _157
REMARK   64  A    between atoms: _156  and  _159
REMARK   65  A    between atoms: _159  and  _160
REMARK   66  A    between atoms: _165  and  _166
REMARK   67  A    between atoms: _168  and  _170
REMARK   68  A    between atoms: _170  and  _171
REMARK   69  A    between atoms: _170  and  _173
REMARK   70  A    between atoms: _173  and  _174
REMARK   71  A    between atoms: _184  and  _186
REMARK   72  A    between atoms: _186  and  _187
REMARK   73  A    between atoms: _186  and  _189
REMARK   74  A    between atoms: _189  and  _190
REMARK   75  A    between atoms: _193  and  _195
REMARK   76  A    between atoms: _195  and  _196
REMARK   77  A    between atoms: _195  and  _198
REMARK   78  A    between atoms: _198  and  _199
REMARK   79  A    between atoms: _202  and  _204
REMARK   80  A    between atoms: _204  and  _205
REMARK   81  A    between atoms: _204  and  _207
REMARK   82  A    between atoms: _207  and  _208
REMARK   83  A    between atoms: _210  and  _212
REMARK   84  A    between atoms: _212  and  _213
REMARK   85  A    between atoms: _212  and  _215
REMARK   86  A    between atoms: _215  and  _216
REMARK   87  A    between atoms: _216  and  _217
REMARK   88  A    between atoms: _222  and  _224
REMARK   89  A    between atoms: _224  and  _225
REMARK   90  A    between atoms: _224  and  _227
REMARK   91  A    between atoms: _227  and  _228
REMARK   92  A    between atoms: _233  and  _234
REMARK   93  A    between atoms: _236  and  _238
REMARK   94  A    between atoms: _238  and  _239
REMARK   95  A    between atoms: _238  and  _241
REMARK   96  A    between atoms: _243  and  _245
REMARK   97  A    between atoms: _245  and  _246
REMARK   98  A    between atoms: _245  and  _248
REMARK   99  A    between atoms: _248  and  _249
REMARK  100  A    between atoms: _251  and  _253
REMARK  101  A    between atoms: _253  and  _254
REMARK  102  A    between atoms: _253  and  _256
REMARK  103  A    between atoms: _256  and  _257
REMARK  104  A    between atoms: _257  and  _258
REMARK  105  A    between atoms: _258  and  _259
REMARK  106  A    between atoms: _268  and  _270
REMARK  107  A    between atoms: _270  and  _271
REMARK  108  A    between atoms: _270  and  _273
REMARK  109  A    between atoms: _273  and  _274
REMARK  110  A    between atoms: _276  and  _278
REMARK  111  A    between atoms: _278  and  _279
REMARK  112  A    between atoms: _278  and  _281
REMARK  113  A    between atoms: _281  and  _282
REMARK  114  A    between atoms: _282  and  _283
REMARK  115  A    between atoms: _286  and  _288
REMARK  116  A    between atoms: _288  and  _289
REMARK  117  A    between atoms: _288  and  _291
REMARK  118  A    between atoms: _291  and  _292
REMARK  119  A    between atoms: _292  and  _293
REMARK  120  A    between atoms: _293  and  _294
REMARK  121  A    between atoms: _294  and  _295
REMARK  122  A    between atoms: _299  and  _301
REMARK  123  A    between atoms: _301  and  _302
REMARK  124  A    between atoms: _301  and  _304
REMARK  125  A    between atoms: _304  and  _305
REMARK  126  A    between atoms: _305  and  _306
REMARK  127  A    between atoms: _306  and  _307
REMARK  128  A    between atoms: _307  and  _308
REMARK  129  A    between atoms: _313  and  _314
REMARK  130  A    between atoms: _319  and  _321
REMARK  131  A    between atoms: _321  and  _322
REMARK  132  A    between atoms: _321  and  _324
REMARK  133  A    between atoms: _324  and  _325
REMARK  134  A    between atoms: _328  and  _330
REMARK  135  A    between atoms: _330  and  _331
REMARK  136  A    between atoms: _330  and  _333
REMARK  137  A    between atoms: _333  and  _334
REMARK  138  A    between atoms: _340  and  _342
REMARK  139  A    between atoms: _342  and  _343
REMARK  140  A    between atoms: _342  and  _345
REMARK  141  A    between atoms: _345  and  _346
REMARK  142  A    between atoms: _351  and  _352
REMARK  143  A    between atoms: _354  and  _356
REMARK  144  A    between atoms: _356  and  _357
REMARK  145  A    between atoms: _356  and  _359
REMARK  146  A    between atoms: _359  and  _360
REMARK  147  A    between atoms: _365  and  _367
REMARK  148  A    between atoms: _367  and  _368
REMARK  149  A    between atoms: _367  and  _370
REMARK  150  A    between atoms: _370  and  _371
REMARK  151  A    between atoms: _371  and  _372
REMARK  152  A    between atoms: _377  and  _379
REMARK  153  A    between atoms: _379  and  _380
REMARK  154  A    between atoms: _379  and  _382
REMARK  155  A    between atoms: _382  and  _383
REMARK  156  A    between atoms: _386  and  _388
REMARK  157  A    between atoms: _388  and  _389
REMARK  158  A    between atoms: _388  and  _391
REMARK  159  A    between atoms: _391  and  _392
REMARK  160  A    between atoms: _392  and  _393
REMARK  161  A    between atoms: _393  and  _394
REMARK  162  A    between atoms: _394  and  _395
REMARK  163  A    between atoms: _399  and  _401
REMARK  164  A    between atoms: _401  and  _402
REMARK  165  A    between atoms: _405  and  _407
REMARK  166  A    between atoms: _407  and  _408
REMARK  167  A    between atoms: _407  and  _410
REMARK  168  A    between atoms: _410  and  _411
REMARK  169  A    between atoms: _417  and  _419
REMARK  170  A    between atoms: _419  and  _420
REMARK  171  A    between atoms: _419  and  _422
REMARK  172  A    between atoms: _422  and  _423
REMARK  173  A    between atoms: _426  and  _428
REMARK  174  A    between atoms: _428  and  _429
REMARK  175  A    between atoms: _428  and  _431
REMARK  176  A    between atoms: _431  and  _432
REMARK  177  A    between atoms: _435  and  _437
REMARK  178  A    between atoms: _437  and  _438
REMARK  179  A    between atoms: _437  and  _440
REMARK  180  A    between atoms: _443  and  _445
REMARK  181  A    between atoms: _445  and  _446
REMARK  182  A    between atoms: _445  and  _448
REMARK  183  A    between atoms: _448  and  _449
REMARK  184  A    between atoms: _449  and  _450
REMARK  185  A    between atoms: _450  and  _451
REMARK  186  A    between atoms: _451  and  _452
REMARK  187  A    between atoms: _456  and  _458
REMARK  188  A    between atoms: _458  and  _459
REMARK  189  A    between atoms: _458  and  _461
REMARK  190  A    between atoms: _461  and  _462
REMARK  191  A    between atoms: _462  and  _463
REMARK  192  A    between atoms: _468  and  _470
REMARK  193  A    between atoms: _470  and  _471
REMARK  194  A    between atoms: _470  and  _473
REMARK  195  A    between atoms: _473  and  _474
REMARK  196  A    between atoms: _480  and  _482
REMARK  197  A    between atoms: _482  and  _483
REMARK  198  A    between atoms: _482  and  _485
REMARK  199  A    between atoms: _485  and  _486
REMARK  200  A    between atoms: _490  and  _491
REMARK  201  A    between atoms: _497  and  _498
REMARK  202  A    between atoms: _503  and  _505
REMARK  203  A    between atoms: _505  and  _506
REMARK  204  A    between atoms: _505  and  _508
REMARK  205  A    between atoms: _508  and  _509
REMARK  206  A    between atoms: _512  and  _514
REMARK  207  A    between atoms: _514  and  _515
REMARK  208  A    between atoms: _514  and  _517
REMARK  209  A    between atoms: _517  and  _518
REMARK  210  A    between atoms: _523  and  _525
REMARK  211  A    between atoms: _525  and  _526
REMARK  212  A    between atoms: _525  and  _528
REMARK  213  A    between atoms: _528  and  _529
REMARK  214  A    between atoms: _532  and  _534
REMARK  215  A    between atoms: _534  and  _535
REMARK  216  A    between atoms: _534  and  _537
REMARK  217  A    between atoms: _537  and  _538
REMARK  218  A    between atoms: _538  and  _539
REMARK  219  A    between atoms: _542  and  _544
REMARK  220  A    between atoms: _544  and  _545
REMARK  221  A    between atoms: _547  and  _549
REMARK  222  A    between atoms: _549  and  _550
REMARK  223  A    between atoms: _549  and  _552
REMARK  224  A    between atoms: _552  and  _553
REMARK  225  A    between atoms: _556  and  _558
REMARK  226  A    between atoms: _558  and  _559
REMARK  227  A    between atoms: _562  and  _564
REMARK  228  A    between atoms: _564  and  _565
REMARK  229  A    between atoms: _564  and  _567
REMARK  230  A    between atoms: _567  and  _568
REMARK  231  A    between atoms: _571  and  _572
REMARK  232  A    between atoms: _577  and  _579
REMARK  233  A    between atoms: _579  and  _580
REMARK  234  A    between atoms: _579  and  _582
REMARK  235  A    between atoms: _582  and  _583
REMARK  236  A    between atoms: _589  and  _591
REMARK  237  A    between atoms: _591  and  _592
REMARK  238  A    between atoms: _591  and  _594
REMARK  239  A    between atoms: _597  and  _599
REMARK  240  A    between atoms: _599  and  _600
REMARK  241  A    between atoms: _599  and  _602
REMARK  242  A    between atoms: _602  and  _603
REMARK  243  A    between atoms: _603  and  _604
REMARK  244  A    between atoms: _607  and  _609
REMARK  245  A    between atoms: _609  and  _610
REMARK  246  A    between atoms: _609  and  _612
REMARK  247  A    between atoms: _612  and  _613
REMARK                            x       y       z     vdW  Elec       q    Type
REMARK                         _______ _______ _______ _____ _____    ______ ____
ROOT
ATOM      1  CA  LYS A   4      64.155  28.180  33.145  0.00  0.00    +0.149 C 
ENDROOT
BRANCH   1   4
ATOM      2  C   VAL A   3      62.406  27.761  31.547  0.00  0.00    +0.241 C 
ATOM      3  O   VAL A   3      61.769  27.111  32.374  0.00  0.00    -0.273 OA
ATOM      4  N   LYS A   4      63.594  28.287  31.810  0.00  0.00    -0.297 N 
ATOM      5  H   LYS A   4      64.124  28.776  31.061  0.00  0.00    +0.150 HD
BRANCH   2   6
ATOM      6  CA  VAL A   3      61.876  27.982  30.145  0.00  0.00    +0.149 C 
BRANCH   6   8
ATOM      7  C   THR A   2      62.122  26.443  28.292  0.00  0.00    +0.243 C 
ATOM      8  N   VAL A   3      61.582  26.726  29.473  0.00  0.00    -0.297 N 
ATOM      9  H   VAL A   3      60.941  26.041  29.922  0.00  0.00    +0.150 HD
ATOM     10  O   THR A   2      62.909  27.191  27.721  0.00  0.00    -0.273 OA
BRANCH   7  11
ATOM     11  CA  THR A   2      61.735  25.118  27.663  0.00  0.00    +0.176 C 
BRANCH  11  14
ATOM     12  C   LEU A   1      60.069  25.765  26.001  0.00  0.00    +0.238 C 
ATOM     13  O   LEU A   1      59.178  25.875  26.835  0.00  0.00    -0.274 OA
ATOM     14  N   THR A   2      61.307  25.393  26.297  0.00  0.00    -0.295 N 
ATOM     15  H   THR A   2      61.998  25.294  25.526  0.00  0.00    +0.150 HD
BRANCH  12  16
ATOM     16  CA  LEU A   1      59.788  26.029  24.533  0.00  0.00    +0.145 C 
BRANCH  16  17
ATOM     17  N   LEU A   1      58.916  24.949  24.090  0.00  0.00    -0.238 NA
ATOM     18  H   LEU A   1      57.889  25.015  24.238  0.00  0.00    +0.142 HD
ENDBRANCH  16  17
BRANCH  16  19
ATOM     19  CB  LEU A   1      59.121  27.402  24.388  0.00  0.00    +0.026 C 
BRANCH  19  20
ATOM     20  CG  LEU A   1      59.976  28.592  24.854  0.00  0.00    +0.002 C 
ATOM     21  CD2 LEU A   1      59.168  29.882  24.787  0.00  0.00    +0.000 C 
ATOM     22  CD1 LEU A   1      61.215  28.706  23.985  0.00  0.00    +0.000 C 
ENDBRANCH  19  20
ENDBRANCH  16  19
ENDBRANCH  12  16
ENDBRANCH  11  14
BRANCH  11  23
ATOM     23  CB  THR A   2      62.963  24.186  27.674  0.00  0.00    +0.137 C 
ATOM     24  CG2 THR A   2      63.462  23.961  29.097  0.00  0.00    +0.034 C 
BRANCH  23  25
ATOM     25  OG1 THR A   2      62.602  22.928  27.093  0.00  0.00    -0.382 OA
ATOM     26  HG1 THR A   2      63.388  22.326  27.098  0.00  0.00    +0.210 HD
ENDBRANCH  23  25
ENDBRANCH  11  23
ENDBRANCH   7  11
ENDBRANCH   6   8
BRANCH   6  27
ATOM     27  CB  VAL A   3      60.613  28.870  30.241  0.00  0.00    +0.027 C 
ATOM     28  CG2 VAL A   3      60.918  30.160  31.006  0.00  0.00    +0.002 C 
ATOM     29  CG1 VAL A   3      60.107  29.192  28.853  0.00  0.00    +0.002 C 
ENDBRANCH   6  27
ENDBRANCH   2   6
ENDBRANCH   1   4
BRANCH   1  30
ATOM     30  C   LYS A   4      64.064  29.579  33.727  0.00  0.00    +0.241 C 
ATOM     31  N   GLN A   5      63.431  29.713  34.887  0.00  0.00    -0.297 N 
ATOM     32  H   GLN A   5      62.992  28.888  35.344  0.00  0.00    +0.150 HD
ATOM     33  O   LYS A   4      64.524  30.538  33.107  0.00  0.00    -0.273 OA
BRANCH  31  34
ATOM     34  CA  GLN A   5      63.358  31.024  35.511  0.00  0.00    +0.149 C 
BRANCH  34  35
ATOM     35  C   GLN A   5      64.575  31.195  36.408  0.00  0.00    +0.241 C 
ATOM     36  O   GLN A   5      65.111  30.222  36.942  0.00  0.00    -0.273 OA
ATOM     37  N   PHE A   6      65.010  32.440  36.534  0.00  0.00    -0.298 N 
ATOM     38  H   PHE A   6      64.522  33.186  35.999  0.00  0.00    +0.150 HD
BRANCH  37  39
ATOM     39  CA  PHE A   6      66.130  32.822  37.376  0.00  0.00    +0.141 C 
BRANCH  39  40
ATOM     40  C   PHE A   6      65.610  33.932  38.275  0.00  0.00    +0.227 C 
ATOM     41  O   PHE A   6      64.696  34.669  37.896  0.00  0.00    -0.286 OA
ENDBRANCH  39  40
BRANCH  39  42
ATOM     42  CB  PHE A   6      67.293  33.348  36.539  0.00  0.00    +0.054 C 
BRANCH  42  43
ATOM     43  CG  PHE A   6      68.040  32.281  35.798  0.00  0.00    -0.020 A 
ATOM     44  CD2 PHE A   6      69.316  31.906  36.204  0.00  0.00    -0.004 A 
ATOM     45  CE2 PHE A   6      70.014  30.907  35.526  0.00  0.00    -0.000 A 
ATOM     46  CZ  PHE A   6      69.432  30.275  34.434  0.00  0.00    -0.000 A 
ATOM     47  CE1 PHE A   6      68.161  30.640  34.020  0.00  0.00    -0.000 A 
ATOM     48  CD1 PHE A   6      67.468  31.643  34.703  0.00  0.00    -0.004 A 
ENDBRANCH  42  43
ENDBRANCH  39  42
ENDBRANCH  37  39
ENDBRANCH  34  35
BRANCH  34  49
ATOM     49  CB  GLN A   5      62.077  31.177  36.347  0.00  0.00    +0.039 C 
BRANCH  49  50
ATOM     50  CG  GLN A   5      60.803  31.047  35.517  0.00  0.00    +0.087 C 
BRANCH  50  51
ATOM     51  CD  GLN A   5      59.577  31.608  36.212  0.00  0.00    +0.219 C 
ATOM     52  OE1 GLN A   5      59.511  32.803  36.503  0.00  0.00    -0.275 OA
ATOM     53  NE2 GLN A   5      58.595  30.748  36.477  0.00  0.00    -0.329 N 
ATOM     54 HE21 GLN A   5      57.728  31.077  36.948  0.00  0.00    +0.145 HD
ATOM     55 HE22 GLN A   5      58.695  29.747  36.213  0.00  0.00    +0.145 HD
ENDBRANCH  50  51
ENDBRANCH  49  50
ENDBRANCH  34  49
ENDBRANCH  31  34
ENDBRANCH   1  30
BRANCH   1  56
ATOM     56  CB  LYS A   4      65.624  27.746  33.103  0.00  0.00    +0.029 C 
BRANCH  56  57
ATOM     57  CG  LYS A   4      65.881  26.362  32.519  0.00  0.00    +0.000 C 
BRANCH  57  58
ATOM     58  CD  LYS A   4      67.378  26.054  32.535  0.00  0.00    -0.024 C 
BRANCH  58  59
ATOM     59  CE  LYS A   4      67.715  24.747  31.826  0.00  0.00    -0.086 C 
BRANCH  59  60
ATOM     60  NZ  LYS A   4      67.175  23.555  32.535  0.00  0.00    +0.380 N 
ATOM     61  HZ1 LYS A   4      67.577  23.512  33.493  0.00  0.00    -0.089 HD
ATOM     62  HZ2 LYS A   4      66.139  23.628  32.595  0.00  0.00    -0.089 HD
ATOM     63  HZ3 LYS A   4      67.433  22.695  32.010  0.00  0.00    -0.089 HD
ENDBRANCH  59  60
ENDBRANCH  58  59
ENDBRANCH  57  58
ENDBRANCH  56  57
ENDBRANCH   1  56
TORSDOF 27
REMARK  Name = ../refined-set-2016/1zhy/1zhy_pocket.pdb
REMARK  247 active torsions:
REMARK  status: ('A' for Active; 'I' for Inactive)
REMARK    1  A    between atoms: _1  and  _3
REMARK    2  A    between atoms: _3  and  _4
REMARK    3  A    between atoms: _3  and  _6
REMARK    4  A    between atoms: _6  and  _7
REMARK    5  A    between atoms: _17  and  _19
REMARK    6  A    between atoms: _19  and  _20
REMARK    7  A    between atoms: _19  and  _22
REMARK    8  A    between atoms: _22  and  _23
REMARK    9  A    between atoms: _29  and  _31
REMARK   10  A    between atoms: _31  and  _32
REMARK   11  A    between atoms: _31  and  _34
REMARK   12  A    between atoms: _34  and  _35
REMARK   13  A    between atoms: _38  and  _40
REMARK   14  A    between atoms: _40  and  _41
REMARK   15  A    between atoms: _40  and  _43
REMARK   16  A    between atoms: _43  and  _44
REMARK   17  A    between atoms: _47  and  _49
REMARK   18  A    between atoms: _49  and  _50
REMARK   19  A    between atoms: _49  and  _52
REMARK   20  A    between atoms: _52  and  _53
REMARK   21  A    between atoms: _55  and  _57
REMARK   22  A    between atoms: _57  and  _58
REMARK   23  A    between atoms: _57  and  _60
REMARK   24  A    between atoms: _60  and  _61
REMARK   25  A    between atoms: _64  and  _66
REMARK   26  A    between atoms: _66  and  _67
REMARK   27  A    between atoms: _71  and  _72
REMARK   28  A    between atoms: _77  and  _79
REMARK   29  A    between atoms: _79  and  _80
REMARK   30  A    between atoms: _79  and  _82
REMARK   31  A    between atoms: _82  and  _83
REMARK   32  A    between atoms: _86  and  _88
REMARK   33  A    between atoms: _88  and  _89
REMARK   34  A    between atoms: _88  and  _91
REMARK   35  A    between atoms: _91  and  _92
REMARK   36  A    between atoms: _95  and  _97
REMARK   37  A    between atoms: _97  and  _98
REMARK   38  A    between atoms: _97  and  _100
REMARK   39  A    between atoms: _100  and  _101
REMARK   40  A    between atoms: _103  and  _105
REMARK   41  A    between atoms: _105  and  _106
REMARK   42  A    between atoms: _105  and  _108
REMARK   43  A    between atoms: _108  and  _109
REMARK   44  A    between atoms: _112  and  _114
REMARK   45  A    between atoms: _114  and  _115
REMARK   46  A    between atoms: _114  and  _117
REMARK   47  A    between atoms: _117  and  _118
REMARK   48  A    between atoms: _118  and  _119
REMARK   49  A    between atoms: _122  and  _124
REMARK   50  A    between atoms: _124  and  _125
REMARK   51  A    between atoms: _124  and  _127
REMARK   52  A    between atoms: _127  and  _128
REMARK   53  A    between atoms: _134  and  _136
REMARK   54  A    between atoms: _136  and  _137
REMARK   55  A    between atoms: _136  and  _139
REMARK   56  A    between atoms: _139  and  _140
REMARK   57  A    between atoms: _142  and  _144
REMARK   58  A    between atoms: _144  and  _145
REMARK   59  A    between atoms: _144  and  _147
REMARK   60  A    between atoms: _147  and  _148
REMARK   61  A    between atoms: _148  and  _149
REMARK   62  A    between atoms: _154  and  _156
REMARK   63  A    between atoms: _156  and  _157
REMARK   64  A    between atoms: _156  and  _159
REMARK   65  A    between atoms: _159  and  _160
REMARK   66  A    between atoms: _165  and  _166
REMARK   67  A    between atoms: _168  and  _170
REMARK   68  A    between atoms: _170  and  _171
REMARK   69  A    between atoms: _170  and  _173
REMARK   70  A    between atoms: _173  and  _174
REMARK   71  A    between atoms: _184  and  _186
REMARK   72  A    between atoms: _186  and  _187
REMARK   73  A    between atoms: _186  and  _189
REMARK   74  A    between atoms: _189  and  _190
REMARK   75  A    between atoms: _193  and  _195
REMARK   76  A    between atoms: _195  and  _196
REMARK   77  A    between atoms: _195  and  _198
REMARK   78  A    between atoms: _198  and  _199
REMARK   79  A    between atoms: _202  and  _204
REMARK   80  A    between atoms: _204  and  _205
REMARK   81  A    between atoms: _204  and  _207
REMARK   82  A    between atoms: _207  and  _208
REMARK   83  A    between atoms: _210  and  _212
REMARK   84  A    between atoms: _212  and  _213
REMARK   85  A    between atoms: _212  and  _215
REMARK   86  A    between atoms: _215  and  _216
REMARK   87  A    between atoms: _216  and  _217
REMARK   88  A    between atoms: _222  and  _224
REMARK   89  A    between atoms: _224  and  _225
REMARK   90  A    between atoms: _224  and  _227
REMARK   91  A    between atoms: _227  and  _228
REMARK   92  A    between atoms: _233  and  _234
REMARK   93  A    between atoms: _236  and  _238
REMARK   94  A    between atoms: _238  and  _239
REMARK   95  A    between atoms: _238  and  _241
REMARK   96  A    between atoms: _243  and  _245
REMARK   97  A    between atoms: _245  and  _246
REMARK   98  A    between atoms: _245  and  _248
REMARK   99  A    between atoms: _248  and  _249
REMARK  100  A    between atoms: _251  and  _253
REMARK  101  A    between atoms: _253  and  _254
REMARK  102  A    between atoms: _253  and  _256
REMARK  103  A    between atoms: _256  and  _257
REMARK  104  A    between atoms: _257  and  _258
REMARK  105  A    between atoms: _258  and  _259
REMARK  106  A    between atoms: _268  and  _270
REMARK  107  A    between atoms: _270  and  _271
REMARK  108  A    between atoms: _270  and  _273
REMARK  109  A    between atoms: _273  and  _274
REMARK  110  A    between atoms: _276  and  _278
REMARK  111  A    between atoms: _278  and  _279
REMARK  112  A    between atoms: _278  and  _281
REMARK  113  A    between atoms: _281  and  _282
REMARK  114  A    between atoms: _282  and  _283
REMARK  115  A    between atoms: _286  and  _288
REMARK  116  A    between atoms: _288  and  _289
REMARK  117  A    between atoms: _288  and  _291
REMARK  118  A    between atoms: _291  and  _292
REMARK  119  A    between atoms: _292  and  _293
REMARK  120  A    between atoms: _293  and  _294
REMARK  121  A    between atoms: _294  and  _295
REMARK  122  A    between atoms: _299  and  _301
REMARK  123  A    between atoms: _301  and  _302
REMARK  124  A    between atoms: _301  and  _304
REMARK  125  A    between atoms: _304  and  _305
REMARK  126  A    between atoms: _305  and  _306
REMARK  127  A    between atoms: _306  and  _307
REMARK  128  A    between atoms: _307  and  _308
REMARK  129  A    between atoms: _313  and  _314
REMARK  130  A    between atoms: _319  and  _321
REMARK  131  A    between atoms: _321  and  _322
REMARK  132  A    between atoms: _321  and  _324
REMARK  133  A    between atoms: _324  and  _325
REMARK  134  A    between atoms: _328  and  _330
REMARK  135  A    between atoms: _330  and  _331
REMARK  136  A    between atoms: _330  and  _333
REMARK  137  A    between atoms: _333  and  _334
REMARK  138  A    between atoms: _340  and  _342
REMARK  139  A    between atoms: _342  and  _343
REMARK  140  A    between atoms: _342  and  _345
REMARK  141  A    between atoms: _345  and  _346
REMARK  142  A    between atoms: _351  and  _352
REMARK  143  A    between atoms: _354  and  _356
REMARK  144  A    between atoms: _356  and  _357
REMARK  145  A    between atoms: _356  and  _359
REMARK  146  A    between atoms: _359  and  _360
REMARK  147  A    between atoms: _365  and  _367
REMARK  148  A    between atoms: _367  and  _368
REMARK  149  A    between atoms: _367  and  _370
REMARK  150  A    between atoms: _370  and  _371
REMARK  151  A    between atoms: _371  and  _372
REMARK  152  A    between atoms: _377  and  _379
REMARK  153  A    between atoms: _379  and  _380
REMARK  154  A    between atoms: _379  and  _382
REMARK  155  A    between atoms: _382  and  _383
REMARK  156  A    between atoms: _386  and  _388
REMARK  157  A    between atoms: _388  and  _389
REMARK  158  A    between atoms: _388  and  _391
REMARK  159  A    between atoms: _391  and  _392
REMARK  160  A    between atoms: _392  and  _393
REMARK  161  A    between atoms: _393  and  _394
REMARK  162  A    between atoms: _394  and  _395
REMARK  163  A    between atoms: _399  and  _401
REMARK  164  A    between atoms: _401  and  _402
REMARK  165  A    between atoms: _405  and  _407
REMARK  166  A    between atoms: _407  and  _408
REMARK  167  A    between atoms: _407  and  _410
REMARK  168  A    between atoms: _410  and  _411
REMARK  169  A    between atoms: _417  and  _419
REMARK  170  A    between atoms: _419  and  _420
REMARK  171  A    between atoms: _419  and  _422
REMARK  172  A    between atoms: _422  and  _423
REMARK  173  A    between atoms: _426  and  _428
REMARK  174  A    between atoms: _428  and  _429
REMARK  175  A    between atoms: _428  and  _431
REMARK  176  A    between atoms: _431  and  _432
REMARK  177  A    between atoms: _435  and  _437
REMARK  178  A    between atoms: _437  and  _438
REMARK  179  A    between atoms: _437  and  _440
REMARK  180  A    between atoms: _443  and  _445
REMARK  181  A    between atoms: _445  and  _446
REMARK  182  A    between atoms: _445  and  _448
REMARK  183  A    between atoms: _448  and  _449
REMARK  184  A    between atoms: _449  and  _450
REMARK  185  A    between atoms: _450  and  _451
REMARK  186  A    between atoms: _451  and  _452
REMARK  187  A    between atoms: _456  and  _458
REMARK  188  A    between atoms: _458  and  _459
REMARK  189  A    between atoms: _458  and  _461
REMARK  190  A    between atoms: _461  and  _462
REMARK  191  A    between atoms: _462  and  _463
REMARK  192  A    between atoms: _468  and  _470
REMARK  193  A    between atoms: _470  and  _471
REMARK  194  A    between atoms: _470  and  _473
REMARK  195  A    between atoms: _473  and  _474
REMARK  196  A    between atoms: _480  and  _482
REMARK  197  A    between atoms: _482  and  _483
REMARK  198  A    between atoms: _482  and  _485
REMARK  199  A    between atoms: _485  and  _486
REMARK  200  A    between atoms: _490  and  _491
REMARK  201  A    between atoms: _497  and  _498
REMARK  202  A    between atoms: _503  and  _505
REMARK  203  A    between atoms: _505  and  _506
REMARK  204  A    between atoms: _505  and  _508
REMARK  205  A    between atoms: _508  and  _509
REMARK  206  A    between atoms: _512  and  _514
REMARK  207  A    between atoms: _514  and  _515
REMARK  208  A    between atoms: _514  and  _517
REMARK  209  A    between atoms: _517  and  _518
REMARK  210  A    between atoms: _523  and  _525
REMARK  211  A    between atoms: _525  and  _526
REMARK  212  A    between atoms: _525  and  _528
REMARK  213  A    between atoms: _528  and  _529
REMARK  214  A    between atoms: _532  and  _534
REMARK  215  A    between atoms: _534  and  _535
REMARK  216  A    between atoms: _534  and  _537
REMARK  217  A    between atoms: _537  and  _538
REMARK  218  A    between atoms: _538  and  _539
REMARK  219  A    between atoms: _542  and  _544
REMARK  220  A    between atoms: _544  and  _545
REMARK  221  A    between atoms: _547  and  _549
REMARK  222  A    between atoms: _549  and  _550
REMARK  223  A    between atoms: _549  and  _552
REMARK  224  A    between atoms: _552  and  _553
REMARK  225  A    between atoms: _556  and  _558
REMARK  226  A    between atoms: _558  and  _559
REMARK  227  A    between atoms: _562  and  _564
REMARK  228  A    between atoms: _564  and  _565
REMARK  229  A    between atoms: _564  and  _567
REMARK  230  A    between atoms: _567  and  _568
REMARK  231  A    between atoms: _571  and  _572
REMARK  232  A    between atoms: _577  and  _579
REMARK  233  A    between atoms: _579  and  _580
REMARK  234  A    between atoms: _579  and  _582
REMARK  235  A    between atoms: _582  and  _583
REMARK  236  A    between atoms: _589  and  _591
REMARK  237  A    between atoms: _591  and  _592
REMARK  238  A    between atoms: _591  and  _594
REMARK  239  A    between atoms: _597  and  _599
REMARK  240  A    between atoms: _599  and  _600
REMARK  241  A    between atoms: _599  and  _602
REMARK  242  A    between atoms: _602  and  _603
REMARK  243  A    between atoms: _603  and  _604
REMARK  244  A    between atoms: _607  and  _609
REMARK  245  A    between atoms: _609  and  _610
REMARK  246  A    between atoms: _609  and  _612
REMARK  247  A    between atoms: _612  and  _613
REMARK                            x       y       z     vdW  Elec       q    Type
REMARK                         _______ _______ _______ _____ _____    ______ ____
ROOT
ATOM      1  CA  THR A   1      61.268  36.899  45.649  0.00  0.00    +0.160 C 
ENDROOT
BRANCH   1   2
ATOM      2  N   THR A   1      62.099  35.868  45.047  0.00  0.00    -0.237 NA
ATOM      3  H   THR A   1      61.967  34.880  45.343  0.00  0.00    +0.142 HD
ENDBRANCH   1   2
BRANCH   1   4
ATOM      4  C   THR A   1      61.215  36.712  47.157  0.00  0.00    +0.227 C 
ATOM      5  O   THR A   1      61.104  35.586  47.645  0.00  0.00    -0.287 OA
ENDBRANCH   1   4
BRANCH   1   6
ATOM      6  CB  THR A   1      59.845  36.827  45.057  0.00  0.00    +0.134 C 
ATOM      7  CG2 THR A   1      58.873  37.708  45.836  0.00  0.00    +0.034 C 
BRANCH   6   8
ATOM      8  OG1 THR A   1      59.892  37.245  43.686  0.00  0.00    -0.383 OA
ATOM      9  HG1 THR A   1      60.497  36.646  43.180  0.00  0.00    +0.210 HD
ENDBRANCH   6   8
ENDBRANCH   1   6
TORSDOF 4
REMARK  Name = ../refined-set-2016/1zhy/1zhy_pocket.pdb
REMARK  247 active torsions:
REMARK  status: ('A' for Active; 'I' for Inactive)
REMARK    1  A    between atoms: _1  and  _3
REMARK    2  A    between atoms: _3  and  _4
REMARK    3  A    between atoms: _3  and  _6
REMARK    4  A    between atoms: _6  and  _7
REMARK    5  A    between atoms: _17  and  _19
REMARK    6  A    between atoms: _19  and  _20
REMARK    7  A    between atoms: _19  and  _22
REMARK    8  A    between atoms: _22  and  _23
REMARK    9  A    between atoms: _29  and  _31
REMARK   10  A    between atoms: _31  and  _32
REMARK   11  A    between atoms: _31  and  _34
REMARK   12  A    between atoms: _34  and  _35
REMARK   13  A    between atoms: _38  and  _40
REMARK   14  A    between atoms: _40  and  _41
REMARK   15  A    between atoms: _40  and  _43
REMARK   16  A    between atoms: _43  and  _44
REMARK   17  A    between atoms: _47  and  _49
REMARK   18  A    between atoms: _49  and  _50
REMARK   19  A    between atoms: _49  and  _52
REMARK   20  A    between atoms: _52  and  _53
REMARK   21  A    between atoms: _55  and  _57
REMARK   22  A    between atoms: _57  and  _58
REMARK   23  A    between atoms: _57  and  _60
REMARK   24  A    between atoms: _60  and  _61
REMARK   25  A    between atoms: _64  and  _66
REMARK   26  A    between atoms: _66  and  _67
REMARK   27  A    between atoms: _71  and  _72
REMARK   28  A    between atoms: _77  and  _79
REMARK   29  A    between atoms: _79  and  _80
REMARK   30  A    between atoms: _79  and  _82
REMARK   31  A    between atoms: _82  and  _83
REMARK   32  A    between atoms: _86  and  _88
REMARK   33  A    between atoms: _88  and  _89
REMARK   34  A    between atoms: _88  and  _91
REMARK   35  A    between atoms: _91  and  _92
REMARK   36  A    between atoms: _95  and  _97
REMARK   37  A    between atoms: _97  and  _98
REMARK   38  A    between atoms: _97  and  _100
REMARK   39  A    between atoms: _100  and  _101
REMARK   40  A    between atoms: _103  and  _105
REMARK   41  A    between atoms: _105  and  _106
REMARK   42  A    between atoms: _105  and  _108
REMARK   43  A    between atoms: _108  and  _109
REMARK   44  A    between atoms: _112  and  _114
REMARK   45  A    between atoms: _114  and  _115
REMARK   46  A    between atoms: _114  and  _117
REMARK   47  A    between atoms: _117  and  _118
REMARK   48  A    between atoms: _118  and  _119
REMARK   49  A    between atoms: _122  and  _124
REMARK   50  A    between atoms: _124  and  _125
REMARK   51  A    between atoms: _124  and  _127
REMARK   52  A    between atoms: _127  and  _128
REMARK   53  A    between atoms: _134  and  _136
REMARK   54  A    between atoms: _136  and  _137
REMARK   55  A    between atoms: _136  and  _139
REMARK   56  A    between atoms: _139  and  _140
REMARK   57  A    between atoms: _142  and  _144
REMARK   58  A    between atoms: _144  and  _145
REMARK   59  A    between atoms: _144  and  _147
REMARK   60  A    between atoms: _147  and  _148
REMARK   61  A    between atoms: _148  and  _149
REMARK   62  A    between atoms: _154  and  _156
REMARK   63  A    between atoms: _156  and  _157
REMARK   64  A    between atoms: _156  and  _159
REMARK   65  A    between atoms: _159  and  _160
REMARK   66  A    between atoms: _165  and  _166
REMARK   67  A    between atoms: _168  and  _170
REMARK   68  A    between atoms: _170  and  _171
REMARK   69  A    between atoms: _170  and  _173
REMARK   70  A    between atoms: _173  and  _174
REMARK   71  A    between atoms: _184  and  _186
REMARK   72  A    between atoms: _186  and  _187
REMARK   73  A    between atoms: _186  and  _189
REMARK   74  A    between atoms: _189  and  _190
REMARK   75  A    between atoms: _193  and  _195
REMARK   76  A    between atoms: _195  and  _196
REMARK   77  A    between atoms: _195  and  _198
REMARK   78  A    between atoms: _198  and  _199
REMARK   79  A    between atoms: _202  and  _204
REMARK   80  A    between atoms: _204  and  _205
REMARK   81  A    between atoms: _204  and  _207
REMARK   82  A    between atoms: _207  and  _208
REMARK   83  A    between atoms: _210  and  _212
REMARK   84  A    between atoms: _212  and  _213
REMARK   85  A    between atoms: _212  and  _215
REMARK   86  A    between atoms: _215  and  _216
REMARK   87  A    between atoms: _216  and  _217
REMARK   88  A    between atoms: _222  and  _224
REMARK   89  A    between atoms: _224  and  _225
REMARK   90  A    between atoms: _224  and  _227
REMARK   91  A    between atoms: _227  and  _228
REMARK   92  A    between atoms: _233  and  _234
REMARK   93  A    between atoms: _236  and  _238
REMARK   94  A    between atoms: _238  and  _239
REMARK   95  A    between atoms: _238  and  _241
REMARK   96  A    between atoms: _243  and  _245
REMARK   97  A    between atoms: _245  and  _246
REMARK   98  A    between atoms: _245  and  _248
REMARK   99  A    between atoms: _248  and  _249
REMARK  100  A    between atoms: _251  and  _253
REMARK  101  A    between atoms: _253  and  _254
REMARK  102  A    between atoms: _253  and  _256
REMARK  103  A    between atoms: _256  and  _257
REMARK  104  A    between atoms: _257  and  _258
REMARK  105  A    between atoms: _258  and  _259
REMARK  106  A    between atoms: _268  and  _270
REMARK  107  A    between atoms: _270  and  _271
REMARK  108  A    between atoms: _270  and  _273
REMARK  109  A    between atoms: _273  and  _274
REMARK  110  A    between atoms: _276  and  _278
REMARK  111  A    between atoms: _278  and  _279
REMARK  112  A    between atoms: _278  and  _281
REMARK  113  A    between atoms: _281  and  _282
REMARK  114  A    between atoms: _282  and  _283
REMARK  115  A    between atoms: _286  and  _288
REMARK  116  A    between atoms: _288  and  _289
REMARK  117  A    between atoms: _288  and  _291
REMARK  118  A    between atoms: _291  and  _292
REMARK  119  A    between atoms: _292  and  _293
REMARK  120  A    between atoms: _293  and  _294
REMARK  121  A    between atoms: _294  and  _295
REMARK  122  A    between atoms: _299  and  _301
REMARK  123  A    between atoms: _301  and  _302
REMARK  124  A    between atoms: _301  and  _304
REMARK  125  A    between atoms: _304  and  _305
REMARK  126  A    between atoms: _305  and  _306
REMARK  127  A    between atoms: _306  and  _307
REMARK  128  A    between atoms: _307  and  _308
REMARK  129  A    between atoms: _313  and  _314
REMARK  130  A    between atoms: _319  and  _321
REMARK  131  A    between atoms: _321  and  _322
REMARK  132  A    between atoms: _321  and  _324
REMARK  133  A    between atoms: _324  and  _325
REMARK  134  A    between atoms: _328  and  _330
REMARK  135  A    between atoms: _330  and  _331
REMARK  136  A    between atoms: _330  and  _333
REMARK  137  A    between atoms: _333  and  _334
REMARK  138  A    between atoms: _340  and  _342
REMARK  139  A    between atoms: _342  and  _343
REMARK  140  A    between atoms: _342  and  _345
REMARK  141  A    between atoms: _345  and  _346
REMARK  142  A    between atoms: _351  and  _352
REMARK  143  A    between atoms: _354  and  _356
REMARK  144  A    between atoms: _356  and  _357
REMARK  145  A    between atoms: _356  and  _359
REMARK  146  A    between atoms: _359  and  _360
REMARK  147  A    between atoms: _365  and  _367
REMARK  148  A    between atoms: _367  and  _368
REMARK  149  A    between atoms: _367  and  _370
REMARK  150  A    between atoms: _370  and  _371
REMARK  151  A    between atoms: _371  and  _372
REMARK  152  A    between atoms: _377  and  _379
REMARK  153  A    between atoms: _379  and  _380
REMARK  154  A    between atoms: _379  and  _382
REMARK  155  A    between atoms: _382  and  _383
REMARK  156  A    between atoms: _386  and  _388
REMARK  157  A    between atoms: _388  and  _389
REMARK  158  A    between atoms: _388  and  _391
REMARK  159  A    between atoms: _391  and  _392
REMARK  160  A    between atoms: _392  and  _393
REMARK  161  A    between atoms: _393  and  _394
REMARK  162  A    between atoms: _394  and  _395
REMARK  163  A    between atoms: _399  and  _401
REMARK  164  A    between atoms: _401  and  _402
REMARK  165  A    between atoms: _405  and  _407
REMARK  166  A    between atoms: _407  and  _408
REMARK  167  A    between atoms: _407  and  _410
REMARK  168  A    between atoms: _410  and  _411
REMARK  169  A    between atoms: _417  and  _419
REMARK  170  A    between atoms: _419  and  _420
REMARK  171  A    between atoms: _419  and  _422
REMARK  172  A    between atoms: _422  and  _423
REMARK  173  A    between atoms: _426  and  _428
REMARK  174  A    between atoms: _428  and  _429
REMARK  175  A    between atoms: _428  and  _431
REMARK  176  A    between atoms: _431  and  _432
REMARK  177  A    between atoms: _435  and  _437
REMARK  178  A    between atoms: _437  and  _438
REMARK  179  A    between atoms: _437  and  _440
REMARK  180  A    between atoms: _443  and  _445
REMARK  181  A    between atoms: _445  and  _446
REMARK  182  A    between atoms: _445  and  _448
REMARK  183  A    between atoms: _448  and  _449
REMARK  184  A    between atoms: _449  and  _450
REMARK  185  A    between atoms: _450  and  _451
REMARK  186  A    between atoms: _451  and  _452
REMARK  187  A    between atoms: _456  and  _458
REMARK  188  A    between atoms: _458  and  _459
REMARK  189  A    between atoms: _458  and  _461
REMARK  190  A    between atoms: _461  and  _462
REMARK  191  A    between atoms: _462  and  _463
REMARK  192  A    between atoms: _468  and  _470
REMARK  193  A    between atoms: _470  and  _471
REMARK  194  A    between atoms: _470  and  _473
REMARK  195  A    between atoms: _473  and  _474
REMARK  196  A    between atoms: _480  and  _482
REMARK  197  A    between atoms: _482  and  _483
REMARK  198  A    between atoms: _482  and  _485
REMARK  199  A    between atoms: _485  and  _486
REMARK  200  A    between atoms: _490  and  _491
REMARK  201  A    between atoms: _497  and  _498
REMARK  202  A    between atoms: _503  and  _505
REMARK  203  A    between atoms: _505  and  _506
REMARK  204  A    between atoms: _505  and  _508
REMARK  205  A    between atoms: _508  and  _509
REMARK  206  A    between atoms: _512  and  _514
REMARK  207  A    between atoms: _514  and  _515
REMARK  208  A    between atoms: _514  and  _517
REMARK  209  A    between atoms: _517  and  _518
REMARK  210  A    between atoms: _523  and  _525
REMARK  211  A    between atoms: _525  and  _526
REMARK  212  A    between atoms: _525  and  _528
REMARK  213  A    between atoms: _528  and  _529
REMARK  214  A    between atoms: _532  and  _534
REMARK  215  A    between atoms: _534  and  _535
REMARK  216  A    between atoms: _534  and  _537
REMARK  217  A    between atoms: _537  and  _538
REMARK  218  A    between atoms: _538  and  _539
REMARK  219  A    between atoms: _542  and  _544
REMARK  220  A    between atoms: _544  and  _545
REMARK  221  A    between atoms: _547  and  _549
REMARK  222  A    between atoms: _549  and  _550
REMARK  223  A    between atoms: _549  and  _552
REMARK  224  A    between atoms: _552  and  _553
REMARK  225  A    between atoms: _556  and  _558
REMARK  226  A    between atoms: _558  and  _559
REMARK  227  A    between atoms: _562  and  _564
REMARK  228  A    between atoms: _564  and  _565
REMARK  229  A    between atoms: _564  and  _567
REMARK  230  A    between atoms: _567  and  _568
REMARK  231  A    between atoms: _571  and  _572
REMARK  232  A    between atoms: _577  and  _579
REMARK  233  A    between atoms: _579  and  _580
REMARK  234  A    between atoms: _579  and  _582
REMARK  235  A    between atoms: _582  and  _583
REMARK  236  A    between atoms: _589  and  _591
REMARK  237  A    between atoms: _591  and  _592
REMARK  238  A    between atoms: _591  and  _594
REMARK  239  A    between atoms: _597  and  _599
REMARK  240  A    between atoms: _599  and  _600
REMARK  241  A    between atoms: _599  and  _602
REMARK  242  A    between atoms: _602  and  _603
REMARK  243  A    between atoms: _603  and  _604
REMARK  244  A    between atoms: _607  and  _609
REMARK  245  A    between atoms: _609  and  _610
REMARK  246  A    between atoms: _609  and  _612
REMARK  247  A    between atoms: _612  and  _613
REMARK                            x       y       z     vdW  Elec       q    Type
REMARK                         _______ _______ _______ _____ _____    ______ ____
ROOT
ATOM      1  C   PRO A   1      60.061  29.147  40.275  0.00  0.00    +0.242 C 
ATOM      2  O   PRO A   1      61.238  28.774  40.284  0.00  0.00    -0.273 OA
ATOM      3  N   PRO A   2      59.093  28.431  39.684  0.00  0.00    -0.273 N 
ATOM      4  CD  PRO A   2      57.639  28.686  39.690  0.00  0.00    +0.094 C 
ATOM      5  CG  PRO A   2      57.073  27.458  38.958  0.00  0.00    +0.024 C 
ATOM      6  CB  PRO A   2      58.089  26.382  39.278  0.00  0.00    +0.030 C 
ATOM      7  CA  PRO A   2      59.384  27.140  39.063  0.00  0.00    +0.140 C 
ENDROOT
BRANCH   1  12
ATOM      8  N   PRO A   1      60.575  30.820  42.007  0.00  0.00    -0.210 NA
ATOM      9  CD  PRO A   1      61.309  32.053  41.697  0.00  0.00    +0.089 C 
ATOM     10  CG  PRO A   1      60.349  32.754  40.785  0.00  0.00    +0.021 C 
ATOM     11  CB  PRO A   1      59.810  31.647  39.938  0.00  0.00    +0.028 C 
ATOM     12  CA  PRO A   1      59.658  30.474  40.910  0.00  0.00    +0.149 C 
ENDBRANCH   1  12
BRANCH   7  13
ATOM     13  C   PRO A   2      59.718  27.205  37.588  0.00  0.00    +0.227 C 
ATOM     14  O   PRO A   2      59.449  28.201  36.918  0.00  0.00    -0.286 OA
ENDBRANCH   7  13
TORSDOF 2
REMARK  Name = ../refined-set-2016/1zhy/1zhy_pocket.pdb
REMARK  247 active torsions:
REMARK  status: ('A' for Active; 'I' for Inactive)
REMARK    1  A    between atoms: _1  and  _3
REMARK    2  A    between atoms: _3  and  _4
REMARK    3  A    between atoms: _3  and  _6
REMARK    4  A    between atoms: _6  and  _7
REMARK    5  A    between atoms: _17  and  _19
REMARK    6  A    between atoms: _19  and  _20
REMARK    7  A    between atoms: _19  and  _22
REMARK    8  A    between atoms: _22  and  _23
REMARK    9  A    between atoms: _29  and  _31
REMARK   10  A    between atoms: _31  and  _32
REMARK   11  A    between atoms: _31  and  _34
REMARK   12  A    between atoms: _34  and  _35
REMARK   13  A    between atoms: _38  and  _40
REMARK   14  A    between atoms: _40  and  _41
REMARK   15  A    between atoms: _40  and  _43
REMARK   16  A    between atoms: _43  and  _44
REMARK   17  A    between atoms: _47  and  _49
REMARK   18  A    between atoms: _49  and  _50
REMARK   19  A    between atoms: _49  and  _52
REMARK   20  A    between atoms: _52  and  _53
REMARK   21  A    between atoms: _55  and  _57
REMARK   22  A    between atoms: _57  and  _58
REMARK   23  A    between atoms: _57  and  _60
REMARK   24  A    between atoms: _60  and  _61
REMARK   25  A    between atoms: _64  and  _66
REMARK   26  A    between atoms: _66  and  _67
REMARK   27  A    between atoms: _71  and  _72
REMARK   28  A    between atoms: _77  and  _79
REMARK   29  A    between atoms: _79  and  _80
REMARK   30  A    between atoms: _79  and  _82
REMARK   31  A    between atoms: _82  and  _83
REMARK   32  A    between atoms: _86  and  _88
REMARK   33  A    between atoms: _88  and  _89
REMARK   34  A    between atoms: _88  and  _91
REMARK   35  A    between atoms: _91  and  _92
REMARK   36  A    between atoms: _95  and  _97
REMARK   37  A    between atoms: _97  and  _98
REMARK   38  A    between atoms: _97  and  _100
REMARK   39  A    between atoms: _100  and  _101
REMARK   40  A    between atoms: _103  and  _105
REMARK   41  A    between atoms: _105  and  _106
REMARK   42  A    between atoms: _105  and  _108
REMARK   43  A    between atoms: _108  and  _109
REMARK   44  A    between atoms: _112  and  _114
REMARK   45  A    between atoms: _114  and  _115
REMARK   46  A    between atoms: _114  and  _117
REMARK   47  A    between atoms: _117  and  _118
REMARK   48  A    between atoms: _118  and  _119
REMARK   49  A    between atoms: _122  and  _124
REMARK   50  A    between atoms: _124  and  _125
REMARK   51  A    between atoms: _124  and  _127
REMARK   52  A    between atoms: _127  and  _128
REMARK   53  A    between atoms: _134  and  _136
REMARK   54  A    between atoms: _136  and  _137
REMARK   55  A    between atoms: _136  and  _139
REMARK   56  A    between atoms: _139  and  _140
REMARK   57  A    between atoms: _142  and  _144
REMARK   58  A    between atoms: _144  and  _145
REMARK   59  A    between atoms: _144  and  _147
REMARK   60  A    between atoms: _147  and  _148
REMARK   61  A    between atoms: _148  and  _149
REMARK   62  A    between atoms: _154  and  _156
REMARK   63  A    between atoms: _156  and  _157
REMARK   64  A    between atoms: _156  and  _159
REMARK   65  A    between atoms: _159  and  _160
REMARK   66  A    between atoms: _165  and  _166
REMARK   67  A    between atoms: _168  and  _170
REMARK   68  A    between atoms: _170  and  _171
REMARK   69  A    between atoms: _170  and  _173
REMARK   70  A    between atoms: _173  and  _174
REMARK   71  A    between atoms: _184  and  _186
REMARK   72  A    between atoms: _186  and  _187
REMARK   73  A    between atoms: _186  and  _189
REMARK   74  A    between atoms: _189  and  _190
REMARK   75  A    between atoms: _193  and  _195
REMARK   76  A    between atoms: _195  and  _196
REMARK   77  A    between atoms: _195  and  _198
REMARK   78  A    between atoms: _198  and  _199
REMARK   79  A    between atoms: _202  and  _204
REMARK   80  A    between atoms: _204  and  _205
REMARK   81  A    between atoms: _204  and  _207
REMARK   82  A    between atoms: _207  and  _208
REMARK   83  A    between atoms: _210  and  _212
REMARK   84  A    between atoms: _212  and  _213
REMARK   85  A    between atoms: _212  and  _215
REMARK   86  A    between atoms: _215  and  _216
REMARK   87  A    between atoms: _216  and  _217
REMARK   88  A    between atoms: _222  and  _224
REMARK   89  A    between atoms: _224  and  _225
REMARK   90  A    between atoms: _224  and  _227
REMARK   91  A    between atoms: _227  and  _228
REMARK   92  A    between atoms: _233  and  _234
REMARK   93  A    between atoms: _236  and  _238
REMARK   94  A    between atoms: _238  and  _239
REMARK   95  A    between atoms: _238  and  _241
REMARK   96  A    between atoms: _243  and  _245
REMARK   97  A    between atoms: _245  and  _246
REMARK   98  A    between atoms: _245  and  _248
REMARK   99  A    between atoms: _248  and  _249
REMARK  100  A    between atoms: _251  and  _253
REMARK  101  A    between atoms: _253  and  _254
REMARK  102  A    between atoms: _253  and  _256
REMARK  103  A    between atoms: _256  and  _257
REMARK  104  A    between atoms: _257  and  _258
REMARK  105  A    between atoms: _258  and  _259
REMARK  106  A    between atoms: _268  and  _270
REMARK  107  A    between atoms: _270  and  _271
REMARK  108  A    between atoms: _270  and  _273
REMARK  109  A    between atoms: _273  and  _274
REMARK  110  A    between atoms: _276  and  _278
REMARK  111  A    between atoms: _278  and  _279
REMARK  112  A    between atoms: _278  and  _281
REMARK  113  A    between atoms: _281  and  _282
REMARK  114  A    between atoms: _282  and  _283
REMARK  115  A    between atoms: _286  and  _288
REMARK  116  A    between atoms: _288  and  _289
REMARK  117  A    between atoms: _288  and  _291
REMARK  118  A    between atoms: _291  and  _292
REMARK  119  A    between atoms: _292  and  _293
REMARK  120  A    between atoms: _293  and  _294
REMARK  121  A    between atoms: _294  and  _295
REMARK  122  A    between atoms: _299  and  _301
REMARK  123  A    between atoms: _301  and  _302
REMARK  124  A    between atoms: _301  and  _304
REMARK  125  A    between atoms: _304  and  _305
REMARK  126  A    between atoms: _305  and  _306
REMARK  127  A    between atoms: _306  and  _307
REMARK  128  A    between atoms: _307  and  _308
REMARK  129  A    between atoms: _313  and  _314
REMARK  130  A    between atoms: _319  and  _321
REMARK  131  A    between atoms: _321  and  _322
REMARK  132  A    between atoms: _321  and  _324
REMARK  133  A    between atoms: _324  and  _325
REMARK  134  A    between atoms: _328  and  _330
REMARK  135  A    between atoms: _330  and  _331
REMARK  136  A    between atoms: _330  and  _333
REMARK  137  A    between atoms: _333  and  _334
REMARK  138  A    between atoms: _340  and  _342
REMARK  139  A    between atoms: _342  and  _343
REMARK  140  A    between atoms: _342  and  _345
REMARK  141  A    between atoms: _345  and  _346
REMARK  142  A    between atoms: _351  and  _352
REMARK  143  A    between atoms: _354  and  _356
REMARK  144  A    between atoms: _356  and  _357
REMARK  145  A    between atoms: _356  and  _359
REMARK  146  A    between atoms: _359  and  _360
REMARK  147  A    between atoms: _365  and  _367
REMARK  148  A    between atoms: _367  and  _368
REMARK  149  A    between atoms: _367  and  _370
REMARK  150  A    between atoms: _370  and  _371
REMARK  151  A    between atoms: _371  and  _372
REMARK  152  A    between atoms: _377  and  _379
REMARK  153  A    between atoms: _379  and  _380
REMARK  154  A    between atoms: _379  and  _382
REMARK  155  A    between atoms: _382  and  _383
REMARK  156  A    between atoms: _386  and  _388
REMARK  157  A    between atoms: _388  and  _389
REMARK  158  A    between atoms: _388  and  _391
REMARK  159  A    between atoms: _391  and  _392
REMARK  160  A    between atoms: _392  and  _393
REMARK  161  A    between atoms: _393  and  _394
REMARK  162  A    between atoms: _394  and  _395
REMARK  163  A    between atoms: _399  and  _401
REMARK  164  A    between atoms: _401  and  _402
REMARK  165  A    between atoms: _405  and  _407
REMARK  166  A    between atoms: _407  and  _408
REMARK  167  A    between atoms: _407  and  _410
REMARK  168  A    between atoms: _410  and  _411
REMARK  169  A    between atoms: _417  and  _419
REMARK  170  A    between atoms: _419  and  _420
REMARK  171  A    between atoms: _419  and  _422
REMARK  172  A    between atoms: _422  and  _423
REMARK  173  A    between atoms: _426  and  _428
REMARK  174  A    between atoms: _428  and  _429
REMARK  175  A    between atoms: _428  and  _431
REMARK  176  A    between atoms: _431  and  _432
REMARK  177  A    between atoms: _435  and  _437
REMARK  178  A    between atoms: _437  and  _438
REMARK  179  A    between atoms: _437  and  _440
REMARK  180  A    between atoms: _443  and  _445
REMARK  181  A    between atoms: _445  and  _446
REMARK  182  A    between atoms: _445  and  _448
REMARK  183  A    between atoms: _448  and  _449
REMARK  184  A    between atoms: _449  and  _450
REMARK  185  A    between atoms: _450  and  _451
REMARK  186  A    between atoms: _451  and  _452
REMARK  187  A    between atoms: _456  and  _458
REMARK  188  A    between atoms: _458  and  _459
REMARK  189  A    between atoms: _458  and  _461
REMARK  190  A    between atoms: _461  and  _462
REMARK  191  A    between atoms: _462  and  _463
REMARK  192  A    between atoms: _468  and  _470
REMARK  193  A    between atoms: _470  and  _471
REMARK  194  A    between atoms: _470  and  _473
REMARK  195  A    between atoms: _473  and  _474
REMARK  196  A    between atoms: _480  and  _482
REMARK  197  A    between atoms: _482  and  _483
REMARK  198  A    between atoms: _482  and  _485
REMARK  199  A    between atoms: _485  and  _486
REMARK  200  A    between atoms: _490  and  _491
REMARK  201  A    between atoms: _497  and  _498
REMARK  202  A    between atoms: _503  and  _505
REMARK  203  A    between atoms: _505  and  _506
REMARK  204  A    between atoms: _505  and  _508
REMARK  205  A    between atoms: _508  and  _509
REMARK  206  A    between atoms: _512  and  _514
REMARK  207  A    between atoms: _514  and  _515
REMARK  208  A    between atoms: _514  and  _517
REMARK  209  A    between atoms: _517  and  _518
REMARK  210  A    between atoms: _523  and  _525
REMARK  211  A    between atoms: _525  and  _526
REMARK  212  A    between atoms: _525  and  _528
REMARK  213  A    between atoms: _528  and  _529
REMARK  214  A    between atoms: _532  and  _534
REMARK  215  A    between atoms: _534  and  _535
REMARK  216  A    between atoms: _534  and  _537
REMARK  217  A    between atoms: _537  and  _538
REMARK  218  A    between atoms: _538  and  _539
REMARK  219  A    between atoms: _542  and  _544
REMARK  220  A    between atoms: _544  and  _545
REMARK  221  A    between atoms: _547  and  _549
REMARK  222  A    between atoms: _549  and  _550
REMARK  223  A    between atoms: _549  and  _552
REMARK  224  A    between atoms: _552  and  _553
REMARK  225  A    between atoms: _556  and  _558
REMARK  226  A    between atoms: _558  and  _559
REMARK  227  A    between atoms: _562  and  _564
REMARK  228  A    between atoms: _564  and  _565
REMARK  229  A    between atoms: _564  and  _567
REMARK  230  A    between atoms: _567  and  _568
REMARK  231  A    between atoms: _571  and  _572
REMARK  232  A    between atoms: _577  and  _579
REMARK  233  A    between atoms: _579  and  _580
REMARK  234  A    between atoms: _579  and  _582
REMARK  235  A    between atoms: _582  and  _583
REMARK  236  A    between atoms: _589  and  _591
REMARK  237  A    between atoms: _591  and  _592
REMARK  238  A    between atoms: _591  and  _594
REMARK  239  A    between atoms: _597  and  _599
REMARK  240  A    between atoms: _599  and  _600
REMARK  241  A    between atoms: _599  and  _602
REMARK  242  A    between atoms: _602  and  _603
REMARK  243  A    between atoms: _603  and  _604
REMARK  244  A    between atoms: _607  and  _609
REMARK  245  A    between atoms: _609  and  _610
REMARK  246  A    between atoms: _609  and  _612
REMARK  247  A    between atoms: _612  and  _613
REMARK                            x       y       z     vdW  Elec       q    Type
REMARK                         _______ _______ _______ _____ _____    ______ ____
ROOT
ATOM      1  CA  ILE A   3      55.266  26.352  26.639  0.00  0.00    +0.149 C 
ENDROOT
BRANCH   1   4
ATOM      2  C   HIS A   2      56.264  25.389  28.599  0.00  0.00    +0.241 C 
ATOM      3  O   HIS A   2      55.173  25.375  29.181  0.00  0.00    -0.273 OA
ATOM      4  N   ILE A   3      56.415  25.870  27.375  0.00  0.00    -0.297 N 
ATOM      5  H   ILE A   3      57.360  25.902  26.942  0.00  0.00    +0.150 HD
BRANCH   2   6
ATOM      6  CA  HIS A   2      57.529  24.899  29.277  0.00  0.00    +0.155 C 
BRANCH   6   9
ATOM      7  C   LEU A   1      58.364  25.462  31.456  0.00  0.00    +0.238 C 
ATOM      8  O   LEU A   1      59.490  25.674  31.012  0.00  0.00    -0.274 OA
ATOM      9  N   HIS A   2      57.361  25.031  30.708  0.00  0.00    -0.297 N 
ATOM     10  H   HIS A   2      56.451  24.787  31.149  0.00  0.00    +0.150 HD
BRANCH   7  11
ATOM     11  CA  LEU A   1      58.057  25.653  32.925  0.00  0.00    +0.145 C 
BRANCH  11  12
ATOM     12  N   LEU A   1      59.285  25.940  33.643  0.00  0.00    -0.238 NA
ATOM     13  H   LEU A   1      60.121  26.282  33.128  0.00  0.00    +0.142 HD
ENDBRANCH  11  12
BRANCH  11  14
ATOM     14  CB  LEU A   1      57.070  26.818  33.092  0.00  0.00    +0.026 C 
BRANCH  14  15
ATOM     15  CG  LEU A   1      57.552  28.191  32.585  0.00  0.00    +0.002 C 
ATOM     16  CD2 LEU A   1      56.917  29.287  33.422  0.00  0.00    +0.000 C 
ATOM     17  CD1 LEU A   1      57.174  28.392  31.116  0.00  0.00    +0.000 C 
ENDBRANCH  14  15
ENDBRANCH  11  14
ENDBRANCH   7  11
ENDBRANCH   6   9
BRANCH   6  18
ATOM     18  CB  HIS A   2      57.864  23.457  28.846  0.00  0.00    +0.076 C 
BRANCH  18  19
ATOM     19  CG  HIS A   2      56.953  22.405  29.404  0.00  0.00    +0.082 A 
ATOM     20  ND1 HIS A   2      57.108  21.883  30.671  0.00  0.00    -0.227 NA
ATOM     21  CE1 HIS A   2      56.213  20.931  30.866  0.00  0.00    +0.199 A 
ATOM     22  NE2 HIS A   2      55.480  20.818  29.773  0.00  0.00    -0.221 NA
ATOM     23  CD2 HIS A   2      55.920  21.731  28.845  0.00  0.00    +0.115 A 
ENDBRANCH  18  19
ENDBRANCH   6  18
ENDBRANCH   2   6
ENDBRANCH   1   4
BRANCH   1  24
ATOM     24  C   ILE A   3      54.929  25.314  25.584  0.00  0.00    +0.241 C 
ATOM     25  N   GLU A   4      53.744  24.732  25.662  0.00  0.00    -0.297 N 
ATOM     26  H   GLU A   4      53.092  24.955  26.441  0.00  0.00    +0.150 HD
ATOM     27  O   ILE A   3      55.750  25.016  24.724  0.00  0.00    -0.273 OA
BRANCH  25  28
ATOM     28  CA  GLU A   4      53.374  23.776  24.636  0.00  0.00    +0.149 C 
BRANCH  28  29
ATOM     29  C   GLU A   4      52.288  24.362  23.757  0.00  0.00    +0.241 C 
ATOM     30  O   GLU A   4      51.845  25.492  23.974  0.00  0.00    -0.273 OA
ATOM     31  N   GLY A   5      51.892  23.614  22.735  0.00  0.00    -0.295 N 
ATOM     32  H   GLY A   5      52.325  22.681  22.579  0.00  0.00    +0.150 HD
BRANCH  31  33
ATOM     33  CA  GLY A   5      50.860  24.088  21.834  0.00  0.00    +0.176 C 
BRANCH  33  34
ATOM     34  C   GLY A   5      51.387  25.010  20.753  0.00  0.00    +0.243 C 
ATOM     35  N   ILE A   6      52.704  25.059  20.578  0.00  0.00    -0.298 N 
ATOM     36  H   ILE A   6      53.325  24.469  21.168  0.00  0.00    +0.150 HD
ATOM     37  O   GLY A   5      50.607  25.675  20.077  0.00  0.00    -0.273 OA
BRANCH  35  38
ATOM     38  CA  ILE A   6      53.285  25.934  19.564  0.00  0.00    +0.137 C 
BRANCH  38  39
ATOM     39  C   ILE A   6      53.004  25.451  18.142  0.00  0.00    +0.227 C 
ATOM     40  O   ILE A   6      52.719  26.257  17.257  0.00  0.00    -0.286 OA
ENDBRANCH  38  39
BRANCH  38  41
ATOM     41  CB  ILE A   6      54.811  26.090  19.766  0.00  0.00    +0.026 C 
ATOM     42  CG2 ILE A   6      55.433  26.810  18.571  0.00  0.00    +0.002 C 
BRANCH  41  43
ATOM     43  CG1 ILE A   6      55.083  26.881  21.048  0.00  0.00    +0.002 C 
ATOM     44  CD1 ILE A   6      54.488  28.263  21.054  0.00  0.00    +0.000 C 
ENDBRANCH  41  43
ENDBRANCH  38  41
ENDBRANCH  35  38
ENDBRANCH  33  34
ENDBRANCH  31  33
ENDBRANCH  28  29
BRANCH  28  45
ATOM     45  CB  GLU A   4      52.945  22.429  25.228  0.00  0.00    +0.041 C 
BRANCH  45  46
ATOM     46  CG  GLU A   4      52.377  22.449  26.617  0.00  0.00    +0.116 C 
BRANCH  46  47
ATOM     47  CD  GLU A   4      52.245  21.042  27.179  0.00  0.00    +0.365 C 
ATOM     48  OE2 GLU A   4      52.774  20.786  28.281  0.00  0.00    -0.246 OA
ATOM     49  OE1 GLU A   4      51.615  20.189  26.517  0.00  0.00    -0.246 OA
ENDBRANCH  46  47
ENDBRANCH  45  46
ENDBRANCH  28  45
ENDBRANCH  25  28
ENDBRANCH   1  24
BRANCH   1  50
ATOM     50  CB  ILE A   3      55.554  27.698  25.918  0.00  0.00    +0.027 C 
ATOM     51  CG2 ILE A   3      54.320  28.145  25.144  0.00  0.00    +0.002 C 
BRANCH  50  52
ATOM     52  CG1 ILE A   3      55.920  28.787  26.929  0.00  0.00    +0.002 C 
ATOM     53  CD1 ILE A   3      57.283  28.653  27.526  0.00  0.00    +0.000 C 
ENDBRANCH  50  52
ENDBRANCH   1  50
TORSDOF 23
REMARK  Name = ../refined-set-2016/1zhy/1zhy_pocket.pdb
REMARK  247 active torsions:
REMARK  status: ('A' for Active; 'I' for Inactive)
REMARK    1  A    between atoms: _1  and  _3
REMARK    2  A    between atoms: _3  and  _4
REMARK    3  A    between atoms: _3  and  _6
REMARK    4  A    between atoms: _6  and  _7
REMARK    5  A    between atoms: _17  and  _19
REMARK    6  A    between atoms: _19  and  _20
REMARK    7  A    between atoms: _19  and  _22
REMARK    8  A    between atoms: _22  and  _23
REMARK    9  A    between atoms: _29  and  _31
REMARK   10  A    between atoms: _31  and  _32
REMARK   11  A    between atoms: _31  and  _34
REMARK   12  A    between atoms: _34  and  _35
REMARK   13  A    between atoms: _38  and  _40
REMARK   14  A    between atoms: _40  and  _41
REMARK   15  A    between atoms: _40  and  _43
REMARK   16  A    between atoms: _43  and  _44
REMARK   17  A    between atoms: _47  and  _49
REMARK   18  A    between atoms: _49  and  _50
REMARK   19  A    between atoms: _49  and  _52
REMARK   20  A    between atoms: _52  and  _53
REMARK   21  A    between atoms: _55  and  _57
REMARK   22  A    between atoms: _57  and  _58
REMARK   23  A    between atoms: _57  and  _60
REMARK   24  A    between atoms: _60  and  _61
REMARK   25  A    between atoms: _64  and  _66
REMARK   26  A    between atoms: _66  and  _67
REMARK   27  A    between atoms: _71  and  _72
REMARK   28  A    between atoms: _77  and  _79
REMARK   29  A    between atoms: _79  and  _80
REMARK   30  A    between atoms: _79  and  _82
REMARK   31  A    between atoms: _82  and  _83
REMARK   32  A    between atoms: _86  and  _88
REMARK   33  A    between atoms: _88  and  _89
REMARK   34  A    between atoms: _88  and  _91
REMARK   35  A    between atoms: _91  and  _92
REMARK   36  A    between atoms: _95  and  _97
REMARK   37  A    between atoms: _97  and  _98
REMARK   38  A    between atoms: _97  and  _100
REMARK   39  A    between atoms: _100  and  _101
REMARK   40  A    between atoms: _103  and  _105
REMARK   41  A    between atoms: _105  and  _106
REMARK   42  A    between atoms: _105  and  _108
REMARK   43  A    between atoms: _108  and  _109
REMARK   44  A    between atoms: _112  and  _114
REMARK   45  A    between atoms: _114  and  _115
REMARK   46  A    between atoms: _114  and  _117
REMARK   47  A    between atoms: _117  and  _118
REMARK   48  A    between atoms: _118  and  _119
REMARK   49  A    between atoms: _122  and  _124
REMARK   50  A    between atoms: _124  and  _125
REMARK   51  A    between atoms: _124  and  _127
REMARK   52  A    between atoms: _127  and  _128
REMARK   53  A    between atoms: _134  and  _136
REMARK   54  A    between atoms: _136  and  _137
REMARK   55  A    between atoms: _136  and  _139
REMARK   56  A    between atoms: _139  and  _140
REMARK   57  A    between atoms: _142  and  _144
REMARK   58  A    between atoms: _144  and  _145
REMARK   59  A    between atoms: _144  and  _147
REMARK   60  A    between atoms: _147  and  _148
REMARK   61  A    between atoms: _148  and  _149
REMARK   62  A    between atoms: _154  and  _156
REMARK   63  A    between atoms: _156  and  _157
REMARK   64  A    between atoms: _156  and  _159
REMARK   65  A    between atoms: _159  and  _160
REMARK   66  A    between atoms: _165  and  _166
REMARK   67  A    between atoms: _168  and  _170
REMARK   68  A    between atoms: _170  and  _171
REMARK   69  A    between atoms: _170  and  _173
REMARK   70  A    between atoms: _173  and  _174
REMARK   71  A    between atoms: _184  and  _186
REMARK   72  A    between atoms: _186  and  _187
REMARK   73  A    between atoms: _186  and  _189
REMARK   74  A    between atoms: _189  and  _190
REMARK   75  A    between atoms: _193  and  _195
REMARK   76  A    between atoms: _195  and  _196
REMARK   77  A    between atoms: _195  and  _198
REMARK   78  A    between atoms: _198  and  _199
REMARK   79  A    between atoms: _202  and  _204
REMARK   80  A    between atoms: _204  and  _205
REMARK   81  A    between atoms: _204  and  _207
REMARK   82  A    between atoms: _207  and  _208
REMARK   83  A    between atoms: _210  and  _212
REMARK   84  A    between atoms: _212  and  _213
REMARK   85  A    between atoms: _212  and  _215
REMARK   86  A    between atoms: _215  and  _216
REMARK   87  A    between atoms: _216  and  _217
REMARK   88  A    between atoms: _222  and  _224
REMARK   89  A    between atoms: _224  and  _225
REMARK   90  A    between atoms: _224  and  _227
REMARK   91  A    between atoms: _227  and  _228
REMARK   92  A    between atoms: _233  and  _234
REMARK   93  A    between atoms: _236  and  _238
REMARK   94  A    between atoms: _238  and  _239
REMARK   95  A    between atoms: _238  and  _241
REMARK   96  A    between atoms: _243  and  _245
REMARK   97  A    between atoms: _245  and  _246
REMARK   98  A    between atoms: _245  and  _248
REMARK   99  A    between atoms: _248  and  _249
REMARK  100  A    between atoms: _251  and  _253
REMARK  101  A    between atoms: _253  and  _254
REMARK  102  A    between atoms: _253  and  _256
REMARK  103  A    between atoms: _256  and  _257
REMARK  104  A    between atoms: _257  and  _258
REMARK  105  A    between atoms: _258  and  _259
REMARK  106  A    between atoms: _268  and  _270
REMARK  107  A    between atoms: _270  and  _271
REMARK  108  A    between atoms: _270  and  _273
REMARK  109  A    between atoms: _273  and  _274
REMARK  110  A    between atoms: _276  and  _278
REMARK  111  A    between atoms: _278  and  _279
REMARK  112  A    between atoms: _278  and  _281
REMARK  113  A    between atoms: _281  and  _282
REMARK  114  A    between atoms: _282  and  _283
REMARK  115  A    between atoms: _286  and  _288
REMARK  116  A    between atoms: _288  and  _289
REMARK  117  A    between atoms: _288  and  _291
REMARK  118  A    between atoms: _291  and  _292
REMARK  119  A    between atoms: _292  and  _293
REMARK  120  A    between atoms: _293  and  _294
REMARK  121  A    between atoms: _294  and  _295
REMARK  122  A    between atoms: _299  and  _301
REMARK  123  A    between atoms: _301  and  _302
REMARK  124  A    between atoms: _301  and  _304
REMARK  125  A    between atoms: _304  and  _305
REMARK  126  A    between atoms: _305  and  _306
REMARK  127  A    between atoms: _306  and  _307
REMARK  128  A    between atoms: _307  and  _308
REMARK  129  A    between atoms: _313  and  _314
REMARK  130  A    between atoms: _319  and  _321
REMARK  131  A    between atoms: _321  and  _322
REMARK  132  A    between atoms: _321  and  _324
REMARK  133  A    between atoms: _324  and  _325
REMARK  134  A    between atoms: _328  and  _330
REMARK  135  A    between atoms: _330  and  _331
REMARK  136  A    between atoms: _330  and  _333
REMARK  137  A    between atoms: _333  and  _334
REMARK  138  A    between atoms: _340  and  _342
REMARK  139  A    between atoms: _342  and  _343
REMARK  140  A    between atoms: _342  and  _345
REMARK  141  A    between atoms: _345  and  _346
REMARK  142  A    between atoms: _351  and  _352
REMARK  143  A    between atoms: _354  and  _356
REMARK  144  A    between atoms: _356  and  _357
REMARK  145  A    between atoms: _356  and  _359
REMARK  146  A    between atoms: _359  and  _360
REMARK  147  A    between atoms: _365  and  _367
REMARK  148  A    between atoms: _367  and  _368
REMARK  149  A    between atoms: _367  and  _370
REMARK  150  A    between atoms: _370  and  _371
REMARK  151  A    between atoms: _371  and  _372
REMARK  152  A    between atoms: _377  and  _379
REMARK  153  A    between atoms: _379  and  _380
REMARK  154  A    between atoms: _379  and  _382
REMARK  155  A    between atoms: _382  and  _383
REMARK  156  A    between atoms: _386  and  _388
REMARK  157  A    between atoms: _388  and  _389
REMARK  158  A    between atoms: _388  and  _391
REMARK  159  A    between atoms: _391  and  _392
REMARK  160  A    between atoms: _392  and  _393
REMARK  161  A    between atoms: _393  and  _394
REMARK  162  A    between atoms: _394  and  _395
REMARK  163  A    between atoms: _399  and  _401
REMARK  164  A    between atoms: _401  and  _402
REMARK  165  A    between atoms: _405  and  _407
REMARK  166  A    between atoms: _407  and  _408
REMARK  167  A    between atoms: _407  and  _410
REMARK  168  A    between atoms: _410  and  _411
REMARK  169  A    between atoms: _417  and  _419
REMARK  170  A    between atoms: _419  and  _420
REMARK  171  A    between atoms: _419  and  _422
REMARK  172  A    between atoms: _422  and  _423
REMARK  173  A    between atoms: _426  and  _428
REMARK  174  A    between atoms: _428  and  _429
REMARK  175  A    between atoms: _428  and  _431
REMARK  176  A    between atoms: _431  and  _432
REMARK  177  A    between atoms: _435  and  _437
REMARK  178  A    between atoms: _437  and  _438
REMARK  179  A    between atoms: _437  and  _440
REMARK  180  A    between atoms: _443  and  _445
REMARK  181  A    between atoms: _445  and  _446
REMARK  182  A    between atoms: _445  and  _448
REMARK  183  A    between atoms: _448  and  _449
REMARK  184  A    between atoms: _449  and  _450
REMARK  185  A    between atoms: _450  and  _451
REMARK  186  A    between atoms: _451  and  _452
REMARK  187  A    between atoms: _456  and  _458
REMARK  188  A    between atoms: _458  and  _459
REMARK  189  A    between atoms: _458  and  _461
REMARK  190  A    between atoms: _461  and  _462
REMARK  191  A    between atoms: _462  and  _463
REMARK  192  A    between atoms: _468  and  _470
REMARK  193  A    between atoms: _470  and  _471
REMARK  194  A    between atoms: _470  and  _473
REMARK  195  A    between atoms: _473  and  _474
REMARK  196  A    between atoms: _480  and  _482
REMARK  197  A    between atoms: _482  and  _483
REMARK  198  A    between atoms: _482  and  _485
REMARK  199  A    between atoms: _485  and  _486
REMARK  200  A    between atoms: _490  and  _491
REMARK  201  A    between atoms: _497  and  _498
REMARK  202  A    between atoms: _503  and  _505
REMARK  203  A    between atoms: _505  and  _506
REMARK  204  A    between atoms: _505  and  _508
REMARK  205  A    between atoms: _508  and  _509
REMARK  206  A    between atoms: _512  and  _514
REMARK  207  A    between atoms: _514  and  _515
REMARK  208  A    between atoms: _514  and  _517
REMARK  209  A    between atoms: _517  and  _518
REMARK  210  A    between atoms: _523  and  _525
REMARK  211  A    between atoms: _525  and  _526
REMARK  212  A    between atoms: _525  and  _528
REMARK  213  A    between atoms: _528  and  _529
REMARK  214  A    between atoms: _532  and  _534
REMARK  215  A    between atoms: _534  and  _535
REMARK  216  A    between atoms: _534  and  _537
REMARK  217  A    between atoms: _537  and  _538
REMARK  218  A    between atoms: _538  and  _539
REMARK  219  A    between atoms: _542  and  _544
REMARK  220  A    between atoms: _544  and  _545
REMARK  221  A    between atoms: _547  and  _549
REMARK  222  A    between atoms: _549  and  _550
REMARK  223  A    between atoms: _549  and  _552
REMARK  224  A    between atoms: _552  and  _553
REMARK  225  A    between atoms: _556  and  _558
REMARK  226  A    between atoms: _558  and  _559
REMARK  227  A    between atoms: _562  and  _564
REMARK  228  A    between atoms: _564  and  _565
REMARK  229  A    between atoms: _564  and  _567
REMARK  230  A    between atoms: _567  and  _568
REMARK  231  A    between atoms: _571  and  _572
REMARK  232  A    between atoms: _577  and  _579
REMARK  233  A    between atoms: _579  and  _580
REMARK  234  A    between atoms: _579  and  _582
REMARK  235  A    between atoms: _582  and  _583
REMARK  236  A    between atoms: _589  and  _591
REMARK  237  A    between atoms: _591  and  _592
REMARK  238  A    between atoms: _591  and  _594
REMARK  239  A    between atoms: _597  and  _599
REMARK  240  A    between atoms: _599  and  _600
REMARK  241  A    between atoms: _599  and  _602
REMARK  242  A    between atoms: _602  and  _603
REMARK  243  A    between atoms: _603  and  _604
REMARK  244  A    between atoms: _607  and  _609
REMARK  245  A    between atoms: _609  and  _610
REMARK  246  A    between atoms: _609  and  _612
REMARK  247  A    between atoms: _612  and  _613
REMARK                            x       y       z     vdW  Elec       q    Type
REMARK                         _______ _______ _______ _____ _____    ______ ____
ROOT
ATOM      1  CA  PHE A   4      49.896  27.604  26.904  0.00  0.00    +0.153 C 
ENDROOT
BRANCH   1   3
ATOM      2  C   PRO A   3      49.760  28.284  24.587  0.00  0.00    +0.241 C 
ATOM      3  N   PHE A   4      50.352  27.564  25.531  0.00  0.00    -0.297 N 
ATOM      4  H   PHE A   4      51.160  26.959  25.279  0.00  0.00    +0.150 HD
ATOM      5  O   PRO A   3      48.769  28.985  24.789  0.00  0.00    -0.273 OA
BRANCH   2   9
ATOM      6  C   SER A   2      48.489  27.495  21.795  0.00  0.00    +0.246 C 
ATOM      7  O   SER A   2      48.281  26.486  22.466  0.00  0.00    -0.273 OA
ATOM      8  N   PRO A   3      49.471  28.358  22.087  0.00  0.00    -0.272 N 
ATOM      9  CA  PRO A   3      50.392  28.191  23.212  0.00  0.00    +0.152 C 
ATOM     10  CB  PRO A   3      51.414  29.315  23.005  0.00  0.00    +0.031 C 
ATOM     11  CG  PRO A   3      51.262  29.703  21.560  0.00  0.00    +0.024 C 
ATOM     12  CD  PRO A   3      49.787  29.590  21.345  0.00  0.00    +0.094 C 
BRANCH   6  13
ATOM     13  CA  SER A   2      47.631  27.813  20.576  0.00  0.00    +0.178 C 
BRANCH  13  15
ATOM     14  C   ALA A   1      48.444  28.269  18.331  0.00  0.00    +0.238 C 
ATOM     15  N   SER A   2      48.473  27.515  19.422  0.00  0.00    -0.295 N 
ATOM     16  H   SER A   2      49.110  26.693  19.456  0.00  0.00    +0.150 HD
ATOM     17  O   ALA A   1      47.700  29.237  18.217  0.00  0.00    -0.274 OA
BRANCH  14  18
ATOM     18  CA  ALA A   1      49.397  27.877  17.201  0.00  0.00    +0.145 C 
ATOM     19  CB  ALA A   1      48.904  28.471  15.878  0.00  0.00    +0.028 C 
BRANCH  18  20
ATOM     20  N   ALA A   1      49.621  26.442  17.050  0.00  0.00    -0.238 NA
ATOM     21  H   ALA A   1      50.587  26.072  17.161  0.00  0.00    +0.142 HD
ENDBRANCH  18  20
ENDBRANCH  14  18
ENDBRANCH  13  15
BRANCH  13  22
ATOM     22  CB  SER A   2      46.379  26.936  20.576  0.00  0.00    +0.166 C 
BRANCH  22  23
ATOM     23  OG  SER A   2      45.454  27.396  21.543  0.00  0.00    -0.380 OA
ATOM     24  H   SER A   2      44.650  26.818  21.530  0.00  0.00    +0.211 HD
ENDBRANCH  22  23
ENDBRANCH  13  22
ENDBRANCH   6  13
ENDBRANCH   2   9
ENDBRANCH   1   3
BRANCH   1  25
ATOM     25  C   PHE A   4      51.034  27.136  27.796  0.00  0.00    +0.241 C 
ATOM     26  N   VAL A   5      51.036  27.646  29.020  0.00  0.00    -0.297 N 
ATOM     27  H   VAL A   5      50.275  28.304  29.283  0.00  0.00    +0.150 HD
ATOM     28  O   PHE A   4      51.897  26.370  27.375  0.00  0.00    -0.273 OA
BRANCH  26  29
ATOM     29  CA  VAL A   5      52.050  27.330  30.012  0.00  0.00    +0.149 C 
BRANCH  29  30
ATOM     30  C   VAL A   5      51.770  26.065  30.803  0.00  0.00    +0.241 C 
ATOM     31  O   VAL A   5      50.634  25.802  31.194  0.00  0.00    -0.273 OA
ATOM     32  N   GLU A   6      52.818  25.280  31.023  0.00  0.00    -0.297 N 
ATOM     33  H   GLU A   6      53.735  25.515  30.593  0.00  0.00    +0.150 HD
BRANCH  32  34
ATOM     34  CA  GLU A   6      52.699  24.099  31.855  0.00  0.00    +0.149 C 
BRANCH  34  35
ATOM     35  C   GLU A   6      53.891  24.136  32.797  0.00  0.00    +0.241 C 
ATOM     36  N   LEU A   7      53.606  24.212  34.093  0.00  0.00    -0.298 N 
ATOM     37  H   LEU A   7      52.611  24.235  34.395  0.00  0.00    +0.150 HD
ATOM     38  O   GLU A   6      55.043  24.118  32.357  0.00  0.00    -0.273 OA
BRANCH  36  39
ATOM     39  CA  LEU A   7      54.655  24.264  35.098  0.00  0.00    +0.137 C 
BRANCH  39  40
ATOM     40  C   LEU A   7      55.250  22.888  35.358  0.00  0.00    +0.227 C 
ATOM     41  O   LEU A   7      54.599  21.861  35.151  0.00  0.00    -0.286 OA
ENDBRANCH  39  40
BRANCH  39  42
ATOM     42  CB  LEU A   7      54.104  24.824  36.411  0.00  0.00    +0.028 C 
BRANCH  42  43
ATOM     43  CG  LEU A   7      53.462  26.211  36.370  0.00  0.00    +0.002 C 
ATOM     44  CD2 LEU A   7      53.051  26.630  37.786  0.00  0.00    +0.000 C 
ATOM     45  CD1 LEU A   7      54.443  27.210  35.781  0.00  0.00    +0.000 C 
ENDBRANCH  42  43
ENDBRANCH  39  42
ENDBRANCH  36  39
ENDBRANCH  34  35
BRANCH  34  46
ATOM     46  CB  GLU A   6      52.713  22.812  31.040  0.00  0.00    +0.041 C 
BRANCH  46  47
ATOM     47  CG  GLU A   6      52.306  21.604  31.885  0.00  0.00    +0.116 C 
BRANCH  47  48
ATOM     48  CD  GLU A   6      51.085  21.885  32.769  0.00  0.00    +0.365 C 
ATOM     49  OE2 GLU A   6      51.187  22.689  33.729  0.00  0.00    -0.246 OA
ATOM     50  OE1 GLU A   6      50.013  21.304  32.505  0.00  0.00    -0.246 OA
ENDBRANCH  47  48
ENDBRANCH  46  47
ENDBRANCH  34  46
ENDBRANCH  32  34
ENDBRANCH  29  30
BRANCH  29  51
ATOM     51  CB  VAL A   5      52.171  28.485  31.039  0.00  0.00    +0.027 C 
ATOM     52  CG2 VAL A   5      53.079  28.083  32.208  0.00  0.00    +0.002 C 
ATOM     53  CG1 VAL A   5      52.701  29.723  30.355  0.00  0.00    +0.002 C 
ENDBRANCH  29  51
ENDBRANCH  26  29
ENDBRANCH   1  25
BRANCH   1  54
ATOM     54  CB  PHE A   4      48.627  26.757  27.100  0.00  0.00    +0.055 C 
BRANCH  54  55
ATOM     55  CG  PHE A   4      48.822  25.285  26.895  0.00  0.00    -0.020 A 
ATOM     56  CD2 PHE A   4      49.217  24.467  27.948  0.00  0.00    -0.004 A 
ATOM     57  CE2 PHE A   4      49.358  23.088  27.771  0.00  0.00    -0.000 A 
ATOM     58  CZ  PHE A   4      49.103  22.522  26.527  0.00  0.00    -0.000 A 
ATOM     59  CE1 PHE A   4      48.710  23.336  25.465  0.00  0.00    -0.000 A 
ATOM     60  CD1 PHE A   4      48.574  24.706  25.655  0.00  0.00    -0.004 A 
ENDBRANCH  54  55
ENDBRANCH   1  54
TORSDOF 23
REMARK  Name = ../refined-set-2016/1zhy/1zhy_pocket.pdb
REMARK  247 active torsions:
REMARK  status: ('A' for Active; 'I' for Inactive)
REMARK    1  A    between atoms: _1  and  _3
REMARK    2  A    between atoms: _3  and  _4
REMARK    3  A    between atoms: _3  and  _6
REMARK    4  A    between atoms: _6  and  _7
REMARK    5  A    between atoms: _17  and  _19
REMARK    6  A    between atoms: _19  and  _20
REMARK    7  A    between atoms: _19  and  _22
REMARK    8  A    between atoms: _22  and  _23
REMARK    9  A    between atoms: _29  and  _31
REMARK   10  A    between atoms: _31  and  _32
REMARK   11  A    between atoms: _31  and  _34
REMARK   12  A    between atoms: _34  and  _35
REMARK   13  A    between atoms: _38  and  _40
REMARK   14  A    between atoms: _40  and  _41
REMARK   15  A    between atoms: _40  and  _43
REMARK   16  A    between atoms: _43  and  _44
REMARK   17  A    between atoms: _47  and  _49
REMARK   18  A    between atoms: _49  and  _50
REMARK   19  A    between atoms: _49  and  _52
REMARK   20  A    between atoms: _52  and  _53
REMARK   21  A    between atoms: _55  and  _57
REMARK   22  A    between atoms: _57  and  _58
REMARK   23  A    between atoms: _57  and  _60
REMARK   24  A    between atoms: _60  and  _61
REMARK   25  A    between atoms: _64  and  _66
REMARK   26  A    between atoms: _66  and  _67
REMARK   27  A    between atoms: _71  and  _72
REMARK   28  A    between atoms: _77  and  _79
REMARK   29  A    between atoms: _79  and  _80
REMARK   30  A    between atoms: _79  and  _82
REMARK   31  A    between atoms: _82  and  _83
REMARK   32  A    between atoms: _86  and  _88
REMARK   33  A    between atoms: _88  and  _89
REMARK   34  A    between atoms: _88  and  _91
REMARK   35  A    between atoms: _91  and  _92
REMARK   36  A    between atoms: _95  and  _97
REMARK   37  A    between atoms: _97  and  _98
REMARK   38  A    between atoms: _97  and  _100
REMARK   39  A    between atoms: _100  and  _101
REMARK   40  A    between atoms: _103  and  _105
REMARK   41  A    between atoms: _105  and  _106
REMARK   42  A    between atoms: _105  and  _108
REMARK   43  A    between atoms: _108  and  _109
REMARK   44  A    between atoms: _112  and  _114
REMARK   45  A    between atoms: _114  and  _115
REMARK   46  A    between atoms: _114  and  _117
REMARK   47  A    between atoms: _117  and  _118
REMARK   48  A    between atoms: _118  and  _119
REMARK   49  A    between atoms: _122  and  _124
REMARK   50  A    between atoms: _124  and  _125
REMARK   51  A    between atoms: _124  and  _127
REMARK   52  A    between atoms: _127  and  _128
REMARK   53  A    between atoms: _134  and  _136
REMARK   54  A    between atoms: _136  and  _137
REMARK   55  A    between atoms: _136  and  _139
REMARK   56  A    between atoms: _139  and  _140
REMARK   57  A    between atoms: _142  and  _144
REMARK   58  A    between atoms: _144  and  _145
REMARK   59  A    between atoms: _144  and  _147
REMARK   60  A    between atoms: _147  and  _148
REMARK   61  A    between atoms: _148  and  _149
REMARK   62  A    between atoms: _154  and  _156
REMARK   63  A    between atoms: _156  and  _157
REMARK   64  A    between atoms: _156  and  _159
REMARK   65  A    between atoms: _159  and  _160
REMARK   66  A    between atoms: _165  and  _166
REMARK   67  A    between atoms: _168  and  _170
REMARK   68  A    between atoms: _170  and  _171
REMARK   69  A    between atoms: _170  and  _173
REMARK   70  A    between atoms: _173  and  _174
REMARK   71  A    between atoms: _184  and  _186
REMARK   72  A    between atoms: _186  and  _187
REMARK   73  A    between atoms: _186  and  _189
REMARK   74  A    between atoms: _189  and  _190
REMARK   75  A    between atoms: _193  and  _195
REMARK   76  A    between atoms: _195  and  _196
REMARK   77  A    between atoms: _195  and  _198
REMARK   78  A    between atoms: _198  and  _199
REMARK   79  A    between atoms: _202  and  _204
REMARK   80  A    between atoms: _204  and  _205
REMARK   81  A    between atoms: _204  and  _207
REMARK   82  A    between atoms: _207  and  _208
REMARK   83  A    between atoms: _210  and  _212
REMARK   84  A    between atoms: _212  and  _213
REMARK   85  A    between atoms: _212  and  _215
REMARK   86  A    between atoms: _215  and  _216
REMARK   87  A    between atoms: _216  and  _217
REMARK   88  A    between atoms: _222  and  _224
REMARK   89  A    between atoms: _224  and  _225
REMARK   90  A    between atoms: _224  and  _227
REMARK   91  A    between atoms: _227  and  _228
REMARK   92  A    between atoms: _233  and  _234
REMARK   93  A    between atoms: _236  and  _238
REMARK   94  A    between atoms: _238  and  _239
REMARK   95  A    between atoms: _238  and  _241
REMARK   96  A    between atoms: _243  and  _245
REMARK   97  A    between atoms: _245  and  _246
REMARK   98  A    between atoms: _245  and  _248
REMARK   99  A    between atoms: _248  and  _249
REMARK  100  A    between atoms: _251  and  _253
REMARK  101  A    between atoms: _253  and  _254
REMARK  102  A    between atoms: _253  and  _256
REMARK  103  A    between atoms: _256  and  _257
REMARK  104  A    between atoms: _257  and  _258
REMARK  105  A    between atoms: _258  and  _259
REMARK  106  A    between atoms: _268  and  _270
REMARK  107  A    between atoms: _270  and  _271
REMARK  108  A    between atoms: _270  and  _273
REMARK  109  A    between atoms: _273  and  _274
REMARK  110  A    between atoms: _276  and  _278
REMARK  111  A    between atoms: _278  and  _279
REMARK  112  A    between atoms: _278  and  _281
REMARK  113  A    between atoms: _281  and  _282
REMARK  114  A    between atoms: _282  and  _283
REMARK  115  A    between atoms: _286  and  _288
REMARK  116  A    between atoms: _288  and  _289
REMARK  117  A    between atoms: _288  and  _291
REMARK  118  A    between atoms: _291  and  _292
REMARK  119  A    between atoms: _292  and  _293
REMARK  120  A    between atoms: _293  and  _294
REMARK  121  A    between atoms: _294  and  _295
REMARK  122  A    between atoms: _299  and  _301
REMARK  123  A    between atoms: _301  and  _302
REMARK  124  A    between atoms: _301  and  _304
REMARK  125  A    between atoms: _304  and  _305
REMARK  126  A    between atoms: _305  and  _306
REMARK  127  A    between atoms: _306  and  _307
REMARK  128  A    between atoms: _307  and  _308
REMARK  129  A    between atoms: _313  and  _314
REMARK  130  A    between atoms: _319  and  _321
REMARK  131  A    between atoms: _321  and  _322
REMARK  132  A    between atoms: _321  and  _324
REMARK  133  A    between atoms: _324  and  _325
REMARK  134  A    between atoms: _328  and  _330
REMARK  135  A    between atoms: _330  and  _331
REMARK  136  A    between atoms: _330  and  _333
REMARK  137  A    between atoms: _333  and  _334
REMARK  138  A    between atoms: _340  and  _342
REMARK  139  A    between atoms: _342  and  _343
REMARK  140  A    between atoms: _342  and  _345
REMARK  141  A    between atoms: _345  and  _346
REMARK  142  A    between atoms: _351  and  _352
REMARK  143  A    between atoms: _354  and  _356
REMARK  144  A    between atoms: _356  and  _357
REMARK  145  A    between atoms: _356  and  _359
REMARK  146  A    between atoms: _359  and  _360
REMARK  147  A    between atoms: _365  and  _367
REMARK  148  A    between atoms: _367  and  _368
REMARK  149  A    between atoms: _367  and  _370
REMARK  150  A    between atoms: _370  and  _371
REMARK  151  A    between atoms: _371  and  _372
REMARK  152  A    between atoms: _377  and  _379
REMARK  153  A    between atoms: _379  and  _380
REMARK  154  A    between atoms: _379  and  _382
REMARK  155  A    between atoms: _382  and  _383
REMARK  156  A    between atoms: _386  and  _388
REMARK  157  A    between atoms: _388  and  _389
REMARK  158  A    between atoms: _388  and  _391
REMARK  159  A    between atoms: _391  and  _392
REMARK  160  A    between atoms: _392  and  _393
REMARK  161  A    between atoms: _393  and  _394
REMARK  162  A    between atoms: _394  and  _395
REMARK  163  A    between atoms: _399  and  _401
REMARK  164  A    between atoms: _401  and  _402
REMARK  165  A    between atoms: _405  and  _407
REMARK  166  A    between atoms: _407  and  _408
REMARK  167  A    between atoms: _407  and  _410
REMARK  168  A    between atoms: _410  and  _411
REMARK  169  A    between atoms: _417  and  _419
REMARK  170  A    between atoms: _419  and  _420
REMARK  171  A    between atoms: _419  and  _422
REMARK  172  A    between atoms: _422  and  _423
REMARK  173  A    between atoms: _426  and  _428
REMARK  174  A    between atoms: _428  and  _429
REMARK  175  A    between atoms: _428  and  _431
REMARK  176  A    between atoms: _431  and  _432
REMARK  177  A    between atoms: _435  and  _437
REMARK  178  A    between atoms: _437  and  _438
REMARK  179  A    between atoms: _437  and  _440
REMARK  180  A    between atoms: _443  and  _445
REMARK  181  A    between atoms: _445  and  _446
REMARK  182  A    between atoms: _445  and  _448
REMARK  183  A    between atoms: _448  and  _449
REMARK  184  A    between atoms: _449  and  _450
REMARK  185  A    between atoms: _450  and  _451
REMARK  186  A    between atoms: _451  and  _452
REMARK  187  A    between atoms: _456  and  _458
REMARK  188  A    between atoms: _458  and  _459
REMARK  189  A    between atoms: _458  and  _461
REMARK  190  A    between atoms: _461  and  _462
REMARK  191  A    between atoms: _462  and  _463
REMARK  192  A    between atoms: _468  and  _470
REMARK  193  A    between atoms: _470  and  _471
REMARK  194  A    between atoms: _470  and  _473
REMARK  195  A    between atoms: _473  and  _474
REMARK  196  A    between atoms: _480  and  _482
REMARK  197  A    between atoms: _482  and  _483
REMARK  198  A    between atoms: _482  and  _485
REMARK  199  A    between atoms: _485  and  _486
REMARK  200  A    between atoms: _490  and  _491
REMARK  201  A    between atoms: _497  and  _498
REMARK  202  A    between atoms: _503  and  _505
REMARK  203  A    between atoms: _505  and  _506
REMARK  204  A    between atoms: _505  and  _508
REMARK  205  A    between atoms: _508  and  _509
REMARK  206  A    between atoms: _512  and  _514
REMARK  207  A    between atoms: _514  and  _515
REMARK  208  A    between atoms: _514  and  _517
REMARK  209  A    between atoms: _517  and  _518
REMARK  210  A    between atoms: _523  and  _525
REMARK  211  A    between atoms: _525  and  _526
REMARK  212  A    between atoms: _525  and  _528
REMARK  213  A    between atoms: _528  and  _529
REMARK  214  A    between atoms: _532  and  _534
REMARK  215  A    between atoms: _534  and  _535
REMARK  216  A    between atoms: _534  and  _537
REMARK  217  A    between atoms: _537  and  _538
REMARK  218  A    between atoms: _538  and  _539
REMARK  219  A    between atoms: _542  and  _544
REMARK  220  A    between atoms: _544  and  _545
REMARK  221  A    between atoms: _547  and  _549
REMARK  222  A    between atoms: _549  and  _550
REMARK  223  A    between atoms: _549  and  _552
REMARK  224  A    between atoms: _552  and  _553
REMARK  225  A    between atoms: _556  and  _558
REMARK  226  A    between atoms: _558  and  _559
REMARK  227  A    between atoms: _562  and  _564
REMARK  228  A    between atoms: _564  and  _565
REMARK  229  A    between atoms: _564  and  _567
REMARK  230  A    between atoms: _567  and  _568
REMARK  231  A    between atoms: _571  and  _572
REMARK  232  A    between atoms: _577  and  _579
REMARK  233  A    between atoms: _579  and  _580
REMARK  234  A    between atoms: _579  and  _582
REMARK  235  A    between atoms: _582  and  _583
REMARK  236  A    between atoms: _589  and  _591
REMARK  237  A    between atoms: _591  and  _592
REMARK  238  A    between atoms: _591  and  _594
REMARK  239  A    between atoms: _597  and  _599
REMARK  240  A    between atoms: _599  and  _600
REMARK  241  A    between atoms: _599  and  _602
REMARK  242  A    between atoms: _602  and  _603
REMARK  243  A    between atoms: _603  and  _604
REMARK  244  A    between atoms: _607  and  _609
REMARK  245  A    between atoms: _609  and  _610
REMARK  246  A    between atoms: _609  and  _612
REMARK  247  A    between atoms: _612  and  _613
REMARK                            x       y       z     vdW  Elec       q    Type
REMARK                         _______ _______ _______ _____ _____    ______ ____
ROOT
ATOM      1  O   HOH     1      57.785  34.072  38.275  0.00  0.00    +0.000 OA
ENDROOT
TORSDOF 0
REMARK  Name = ../refined-set-2016/1zhy/1zhy_pocket.pdb
REMARK  247 active torsions:
REMARK  status: ('A' for Active; 'I' for Inactive)
REMARK    1  A    between atoms: _1  and  _3
REMARK    2  A    between atoms: _3  and  _4
REMARK    3  A    between atoms: _3  and  _6
REMARK    4  A    between atoms: _6  and  _7
REMARK    5  A    between atoms: _17  and  _19
REMARK    6  A    between atoms: _19  and  _20
REMARK    7  A    between atoms: _19  and  _22
REMARK    8  A    between atoms: _22  and  _23
REMARK    9  A    between atoms: _29  and  _31
REMARK   10  A    between atoms: _31  and  _32
REMARK   11  A    between atoms: _31  and  _34
REMARK   12  A    between atoms: _34  and  _35
REMARK   13  A    between atoms: _38  and  _40
REMARK   14  A    between atoms: _40  and  _41
REMARK   15  A    between atoms: _40  and  _43
REMARK   16  A    between atoms: _43  and  _44
REMARK   17  A    between atoms: _47  and  _49
REMARK   18  A    between atoms: _49  and  _50
REMARK   19  A    between atoms: _49  and  _52
REMARK   20  A    between atoms: _52  and  _53
REMARK   21  A    between atoms: _55  and  _57
REMARK   22  A    between atoms: _57  and  _58
REMARK   23  A    between atoms: _57  and  _60
REMARK   24  A    between atoms: _60  and  _61
REMARK   25  A    between atoms: _64  and  _66
REMARK   26  A    between atoms: _66  and  _67
REMARK   27  A    between atoms: _71  and  _72
REMARK   28  A    between atoms: _77  and  _79
REMARK   29  A    between atoms: _79  and  _80
REMARK   30  A    between atoms: _79  and  _82
REMARK   31  A    between atoms: _82  and  _83
REMARK   32  A    between atoms: _86  and  _88
REMARK   33  A    between atoms: _88  and  _89
REMARK   34  A    between atoms: _88  and  _91
REMARK   35  A    between atoms: _91  and  _92
REMARK   36  A    between atoms: _95  and  _97
REMARK   37  A    between atoms: _97  and  _98
REMARK   38  A    between atoms: _97  and  _100
REMARK   39  A    between atoms: _100  and  _101
REMARK   40  A    between atoms: _103  and  _105
REMARK   41  A    between atoms: _105  and  _106
REMARK   42  A    between atoms: _105  and  _108
REMARK   43  A    between atoms: _108  and  _109
REMARK   44  A    between atoms: _112  and  _114
REMARK   45  A    between atoms: _114  and  _115
REMARK   46  A    between atoms: _114  and  _117
REMARK   47  A    between atoms: _117  and  _118
REMARK   48  A    between atoms: _118  and  _119
REMARK   49  A    between atoms: _122  and  _124
REMARK   50  A    between atoms: _124  and  _125
REMARK   51  A    between atoms: _124  and  _127
REMARK   52  A    between atoms: _127  and  _128
REMARK   53  A    between atoms: _134  and  _136
REMARK   54  A    between atoms: _136  and  _137
REMARK   55  A    between atoms: _136  and  _139
REMARK   56  A    between atoms: _139  and  _140
REMARK   57  A    between atoms: _142  and  _144
REMARK   58  A    between atoms: _144  and  _145
REMARK   59  A    between atoms: _144  and  _147
REMARK   60  A    between atoms: _147  and  _148
REMARK   61  A    between atoms: _148  and  _149
REMARK   62  A    between atoms: _154  and  _156
REMARK   63  A    between atoms: _156  and  _157
REMARK   64  A    between atoms: _156  and  _159
REMARK   65  A    between atoms: _159  and  _160
REMARK   66  A    between atoms: _165  and  _166
REMARK   67  A    between atoms: _168  and  _170
REMARK   68  A    between atoms: _170  and  _171
REMARK   69  A    between atoms: _170  and  _173
REMARK   70  A    between atoms: _173  and  _174
REMARK   71  A    between atoms: _184  and  _186
REMARK   72  A    between atoms: _186  and  _187
REMARK   73  A    between atoms: _186  and  _189
REMARK   74  A    between atoms: _189  and  _190
REMARK   75  A    between atoms: _193  and  _195
REMARK   76  A    between atoms: _195  and  _196
REMARK   77  A    between atoms: _195  and  _198
REMARK   78  A    between atoms: _198  and  _199
REMARK   79  A    between atoms: _202  and  _204
REMARK   80  A    between atoms: _204  and  _205
REMARK   81  A    between atoms: _204  and  _207
REMARK   82  A    between atoms: _207  and  _208
REMARK   83  A    between atoms: _210  and  _212
REMARK   84  A    between atoms: _212  and  _213
REMARK   85  A    between atoms: _212  and  _215
REMARK   86  A    between atoms: _215  and  _216
REMARK   87  A    between atoms: _216  and  _217
REMARK   88  A    between atoms: _222  and  _224
REMARK   89  A    between atoms: _224  and  _225
REMARK   90  A    between atoms: _224  and  _227
REMARK   91  A    between atoms: _227  and  _228
REMARK   92  A    between atoms: _233  and  _234
REMARK   93  A    between atoms: _236  and  _238
REMARK   94  A    between atoms: _238  and  _239
REMARK   95  A    between atoms: _238  and  _241
REMARK   96  A    between atoms: _243  and  _245
REMARK   97  A    between atoms: _245  and  _246
REMARK   98  A    between atoms: _245  and  _248
REMARK   99  A    between atoms: _248  and  _249
REMARK  100  A    between atoms: _251  and  _253
REMARK  101  A    between atoms: _253  and  _254
REMARK  102  A    between atoms: _253  and  _256
REMARK  103  A    between atoms: _256  and  _257
REMARK  104  A    between atoms: _257  and  _258
REMARK  105  A    between atoms: _258  and  _259
REMARK  106  A    between atoms: _268  and  _270
REMARK  107  A    between atoms: _270  and  _271
REMARK  108  A    between atoms: _270  and  _273
REMARK  109  A    between atoms: _273  and  _274
REMARK  110  A    between atoms: _276  and  _278
REMARK  111  A    between atoms: _278  and  _279
REMARK  112  A    between atoms: _278  and  _281
REMARK  113  A    between atoms: _281  and  _282
REMARK  114  A    between atoms: _282  and  _283
REMARK  115  A    between atoms: _286  and  _288
REMARK  116  A    between atoms: _288  and  _289
REMARK  117  A    between atoms: _288  and  _291
REMARK  118  A    between atoms: _291  and  _292
REMARK  119  A    between atoms: _292  and  _293
REMARK  120  A    between atoms: _293  and  _294
REMARK  121  A    between atoms: _294  and  _295
REMARK  122  A    between atoms: _299  and  _301
REMARK  123  A    between atoms: _301  and  _302
REMARK  124  A    between atoms: _301  and  _304
REMARK  125  A    between atoms: _304  and  _305
REMARK  126  A    between atoms: _305  and  _306
REMARK  127  A    between atoms: _306  and  _307
REMARK  128  A    between atoms: _307  and  _308
REMARK  129  A    between atoms: _313  and  _314
REMARK  130  A    between atoms: _319  and  _321
REMARK  131  A    between atoms: _321  and  _322
REMARK  132  A    between atoms: _321  and  _324
REMARK  133  A    between atoms: _324  and  _325
REMARK  134  A    between atoms: _328  and  _330
REMARK  135  A    between atoms: _330  and  _331
REMARK  136  A    between atoms: _330  and  _333
REMARK  137  A    between atoms: _333  and  _334
REMARK  138  A    between atoms: _340  and  _342
REMARK  139  A    between atoms: _342  and  _343
REMARK  140  A    between atoms: _342  and  _345
REMARK  141  A    between atoms: _345  and  _346
REMARK  142  A    between atoms: _351  and  _352
REMARK  143  A    between atoms: _354  and  _356
REMARK  144  A    between atoms: _356  and  _357
REMARK  145  A    between atoms: _356  and  _359
REMARK  146  A    between atoms: _359  and  _360
REMARK  147  A    between atoms: _365  and  _367
REMARK  148  A    between atoms: _367  and  _368
REMARK  149  A    between atoms: _367  and  _370
REMARK  150  A    between atoms: _370  and  _371
REMARK  151  A    between atoms: _371  and  _372
REMARK  152  A    between atoms: _377  and  _379
REMARK  153  A    between atoms: _379  and  _380
REMARK  154  A    between atoms: _379  and  _382
REMARK  155  A    between atoms: _382  and  _383
REMARK  156  A    between atoms: _386  and  _388
REMARK  157  A    between atoms: _388  and  _389
REMARK  158  A    between atoms: _388  and  _391
REMARK  159  A    between atoms: _391  and  _392
REMARK  160  A    between atoms: _392  and  _393
REMARK  161  A    between atoms: _393  and  _394
REMARK  162  A    between atoms: _394  and  _395
REMARK  163  A    between atoms: _399  and  _401
REMARK  164  A    between atoms: _401  and  _402
REMARK  165  A    between atoms: _405  and  _407
REMARK  166  A    between atoms: _407  and  _408
REMARK  167  A    between atoms: _407  and  _410
REMARK  168  A    between atoms: _410  and  _411
REMARK  169  A    between atoms: _417  and  _419
REMARK  170  A    between atoms: _419  and  _420
REMARK  171  A    between atoms: _419  and  _422
REMARK  172  A    between atoms: _422  and  _423
REMARK  173  A    between atoms: _426  and  _428
REMARK  174  A    between atoms: _428  and  _429
REMARK  175  A    between atoms: _428  and  _431
REMARK  176  A    between atoms: _431  and  _432
REMARK  177  A    between atoms: _435  and  _437
REMARK  178  A    between atoms: _437  and  _438
REMARK  179  A    between atoms: _437  and  _440
REMARK  180  A    between atoms: _443  and  _445
REMARK  181  A    between atoms: _445  and  _446
REMARK  182  A    between atoms: _445  and  _448
REMARK  183  A    between atoms: _448  and  _449
REMARK  184  A    between atoms: _449  and  _450
REMARK  185  A    between atoms: _450  and  _451
REMARK  186  A    between atoms: _451  and  _452
REMARK  187  A    between atoms: _456  and  _458
REMARK  188  A    between atoms: _458  and  _459
REMARK  189  A    between atoms: _458  and  _461
REMARK  190  A    between atoms: _461  and  _462
REMARK  191  A    between atoms: _462  and  _463
REMARK  192  A    between atoms: _468  and  _470
REMARK  193  A    between atoms: _470  and  _471
REMARK  194  A    between atoms: _470  and  _473
REMARK  195  A    between atoms: _473  and  _474
REMARK  196  A    between atoms: _480  and  _482
REMARK  197  A    between atoms: _482  and  _483
REMARK  198  A    between atoms: _482  and  _485
REMARK  199  A    between atoms: _485  and  _486
REMARK  200  A    between atoms: _490  and  _491
REMARK  201  A    between atoms: _497  and  _498
REMARK  202  A    between atoms: _503  and  _505
REMARK  203  A    between atoms: _505  and  _506
REMARK  204  A    between atoms: _505  and  _508
REMARK  205  A    between atoms: _508  and  _509
REMARK  206  A    between atoms: _512  and  _514
REMARK  207  A    between atoms: _514  and  _515
REMARK  208  A    between atoms: _514  and  _517
REMARK  209  A    between atoms: _517  and  _518
REMARK  210  A    between atoms: _523  and  _525
REMARK  211  A    between atoms: _525  and  _526
REMARK  212  A    between atoms: _525  and  _528
REMARK  213  A    between atoms: _528  and  _529
REMARK  214  A    between atoms: _532  and  _534
REMARK  215  A    between atoms: _534  and  _535
REMARK  216  A    between atoms: _534  and  _537
REMARK  217  A    between atoms: _537  and  _538
REMARK  218  A    between atoms: _538  and  _539
REMARK  219  A    between atoms: _542  and  _544
REMARK  220  A    between atoms: _544  and  _545
REMARK  221  A    between atoms: _547  and  _549
REMARK  222  A    between atoms: _549  and  _550
REMARK  223  A    between atoms: _549  and  _552
REMARK  224  A    between atoms: _552  and  _553
REMARK  225  A    between atoms: _556  and  _558
REMARK  226  A    between atoms: _558  and  _559
REMARK  227  A    between atoms: _562  and  _564
REMARK  228  A    between atoms: _564  and  _565
REMARK  229  A    between atoms: _564  and  _567
REMARK  230  A    between atoms: _567  and  _568
REMARK  231  A    between atoms: _571  and  _572
REMARK  232  A    between atoms: _577  and  _579
REMARK  233  A    between atoms: _579  and  _580
REMARK  234  A    between atoms: _579  and  _582
REMARK  235  A    between atoms: _582  and  _583
REMARK  236  A    between atoms: _589  and  _591
REMARK  237  A    between atoms: _591  and  _592
REMARK  238  A    between atoms: _591  and  _594
REMARK  239  A    between atoms: _597  and  _599
REMARK  240  A    between atoms: _599  and  _600
REMARK  241  A    between atoms: _599  and  _602
REMARK  242  A    between atoms: _602  and  _603
REMARK  243  A    between atoms: _603  and  _604
REMARK  244  A    between atoms: _607  and  _609
REMARK  245  A    between atoms: _609  and  _610
REMARK  246  A    between atoms: _609  and  _612
REMARK  247  A    between atoms: _612  and  _613
REMARK                            x       y       z     vdW  Elec       q    Type
REMARK                         _______ _______ _______ _____ _____    ______ ____
ROOT
ATOM      1  O   HOH     1      57.870  37.994  38.418  0.00  0.00    +0.000 OA
ENDROOT
TORSDOF 0
REMARK  Name = ../refined-set-2016/1zhy/1zhy_pocket.pdb
REMARK  247 active torsions:
REMARK  status: ('A' for Active; 'I' for Inactive)
REMARK    1  A    between atoms: _1  and  _3
REMARK    2  A    between atoms: _3  and  _4
REMARK    3  A    between atoms: _3  and  _6
REMARK    4  A    between atoms: _6  and  _7
REMARK    5  A    between atoms: _17  and  _19
REMARK    6  A    between atoms: _19  and  _20
REMARK    7  A    between atoms: _19  and  _22
REMARK    8  A    between atoms: _22  and  _23
REMARK    9  A    between atoms: _29  and  _31
REMARK   10  A    between atoms: _31  and  _32
REMARK   11  A    between atoms: _31  and  _34
REMARK   12  A    between atoms: _34  and  _35
REMARK   13  A    between atoms: _38  and  _40
REMARK   14  A    between atoms: _40  and  _41
REMARK   15  A    between atoms: _40  and  _43
REMARK   16  A    between atoms: _43  and  _44
REMARK   17  A    between atoms: _47  and  _49
REMARK   18  A    between atoms: _49  and  _50
REMARK   19  A    between atoms: _49  and  _52
REMARK   20  A    between atoms: _52  and  _53
REMARK   21  A    between atoms: _55  and  _57
REMARK   22  A    between atoms: _57  and  _58
REMARK   23  A    between atoms: _57  and  _60
REMARK   24  A    between atoms: _60  and  _61
REMARK   25  A    between atoms: _64  and  _66
REMARK   26  A    between atoms: _66  and  _67
REMARK   27  A    between atoms: _71  and  _72
REMARK   28  A    between atoms: _77  and  _79
REMARK   29  A    between atoms: _79  and  _80
REMARK   30  A    between atoms: _79  and  _82
REMARK   31  A    between atoms: _82  and  _83
REMARK   32  A    between atoms: _86  and  _88
REMARK   33  A    between atoms: _88  and  _89
REMARK   34  A    between atoms: _88  and  _91
REMARK   35  A    between atoms: _91  and  _92
REMARK   36  A    between atoms: _95  and  _97
REMARK   37  A    between atoms: _97  and  _98
REMARK   38  A    between atoms: _97  and  _100
REMARK   39  A    between atoms: _100  and  _101
REMARK   40  A    between atoms: _103  and  _105
REMARK   41  A    between atoms: _105  and  _106
REMARK   42  A    between atoms: _105  and  _108
REMARK   43  A    between atoms: _108  and  _109
REMARK   44  A    between atoms: _112  and  _114
REMARK   45  A    between atoms: _114  and  _115
REMARK   46  A    between atoms: _114  and  _117
REMARK   47  A    between atoms: _117  and  _118
REMARK   48  A    between atoms: _118  and  _119
REMARK   49  A    between atoms: _122  and  _124
REMARK   50  A    between atoms: _124  and  _125
REMARK   51  A    between atoms: _124  and  _127
REMARK   52  A    between atoms: _127  and  _128
REMARK   53  A    between atoms: _134  and  _136
REMARK   54  A    between atoms: _136  and  _137
REMARK   55  A    between atoms: _136  and  _139
REMARK   56  A    between atoms: _139  and  _140
REMARK   57  A    between atoms: _142  and  _144
REMARK   58  A    between atoms: _144  and  _145
REMARK   59  A    between atoms: _144  and  _147
REMARK   60  A    between atoms: _147  and  _148
REMARK   61  A    between atoms: _148  and  _149
REMARK   62  A    between atoms: _154  and  _156
REMARK   63  A    between atoms: _156  and  _157
REMARK   64  A    between atoms: _156  and  _159
REMARK   65  A    between atoms: _159  and  _160
REMARK   66  A    between atoms: _165  and  _166
REMARK   67  A    between atoms: _168  and  _170
REMARK   68  A    between atoms: _170  and  _171
REMARK   69  A    between atoms: _170  and  _173
REMARK   70  A    between atoms: _173  and  _174
REMARK   71  A    between atoms: _184  and  _186
REMARK   72  A    between atoms: _186  and  _187
REMARK   73  A    between atoms: _186  and  _189
REMARK   74  A    between atoms: _189  and  _190
REMARK   75  A    between atoms: _193  and  _195
REMARK   76  A    between atoms: _195  and  _196
REMARK   77  A    between atoms: _195  and  _198
REMARK   78  A    between atoms: _198  and  _199
REMARK   79  A    between atoms: _202  and  _204
REMARK   80  A    between atoms: _204  and  _205
REMARK   81  A    between atoms: _204  and  _207
REMARK   82  A    between atoms: _207  and  _208
REMARK   83  A    between atoms: _210  and  _212
REMARK   84  A    between atoms: _212  and  _213
REMARK   85  A    between atoms: _212  and  _215
REMARK   86  A    between atoms: _215  and  _216
REMARK   87  A    between atoms: _216  and  _217
REMARK   88  A    between atoms: _222  and  _224
REMARK   89  A    between atoms: _224  and  _225
REMARK   90  A    between atoms: _224  and  _227
REMARK   91  A    between atoms: _227  and  _228
REMARK   92  A    between atoms: _233  and  _234
REMARK   93  A    between atoms: _236  and  _238
REMARK   94  A    between atoms: _238  and  _239
REMARK   95  A    between atoms: _238  and  _241
REMARK   96  A    between atoms: _243  and  _245
REMARK   97  A    between atoms: _245  and  _246
REMARK   98  A    between atoms: _245  and  _248
REMARK   99  A    between atoms: _248  and  _249
REMARK  100  A    between atoms: _251  and  _253
REMARK  101  A    between atoms: _253  and  _254
REMARK  102  A    between atoms: _253  and  _256
REMARK  103  A    between atoms: _256  and  _257
REMARK  104  A    between atoms: _257  and  _258
REMARK  105  A    between atoms: _258  and  _259
REMARK  106  A    between atoms: _268  and  _270
REMARK  107  A    between atoms: _270  and  _271
REMARK  108  A    between atoms: _270  and  _273
REMARK  109  A    between atoms: _273  and  _274
REMARK  110  A    between atoms: _276  and  _278
REMARK  111  A    between atoms: _278  and  _279
REMARK  112  A    between atoms: _278  and  _281
REMARK  113  A    between atoms: _281  and  _282
REMARK  114  A    between atoms: _282  and  _283
REMARK  115  A    between atoms: _286  and  _288
REMARK  116  A    between atoms: _288  and  _289
REMARK  117  A    between atoms: _288  and  _291
REMARK  118  A    between atoms: _291  and  _292
REMARK  119  A    between atoms: _292  and  _293
REMARK  120  A    between atoms: _293  and  _294
REMARK  121  A    between atoms: _294  and  _295
REMARK  122  A    between atoms: _299  and  _301
REMARK  123  A    between atoms: _301  and  _302
REMARK  124  A    between atoms: _301  and  _304
REMARK  125  A    between atoms: _304  and  _305
REMARK  126  A    between atoms: _305  and  _306
REMARK  127  A    between atoms: _306  and  _307
REMARK  128  A    between atoms: _307  and  _308
REMARK  129  A    between atoms: _313  and  _314
REMARK  130  A    between atoms: _319  and  _321
REMARK  131  A    between atoms: _321  and  _322
REMARK  132  A    between atoms: _321  and  _324
REMARK  133  A    between atoms: _324  and  _325
REMARK  134  A    between atoms: _328  and  _330
REMARK  135  A    between atoms: _330  and  _331
REMARK  136  A    between atoms: _330  and  _333
REMARK  137  A    between atoms: _333  and  _334
REMARK  138  A    between atoms: _340  and  _342
REMARK  139  A    between atoms: _342  and  _343
REMARK  140  A    between atoms: _342  and  _345
REMARK  141  A    between atoms: _345  and  _346
REMARK  142  A    between atoms: _351  and  _352
REMARK  143  A    between atoms: _354  and  _356
REMARK  144  A    between atoms: _356  and  _357
REMARK  145  A    between atoms: _356  and  _359
REMARK  146  A    between atoms: _359  and  _360
REMARK  147  A    between atoms: _365  and  _367
REMARK  148  A    between atoms: _367  and  _368
REMARK  149  A    between atoms: _367  and  _370
REMARK  150  A    between atoms: _370  and  _371
REMARK  151  A    between atoms: _371  and  _372
REMARK  152  A    between atoms: _377  and  _379
REMARK  153  A    between atoms: _379  and  _380
REMARK  154  A    between atoms: _379  and  _382
REMARK  155  A    between atoms: _382  and  _383
REMARK  156  A    between atoms: _386  and  _388
REMARK  157  A    between atoms: _388  and  _389
REMARK  158  A    between atoms: _388  and  _391
REMARK  159  A    between atoms: _391  and  _392
REMARK  160  A    between atoms: _392  and  _393
REMARK  161  A    between atoms: _393  and  _394
REMARK  162  A    between atoms: _394  and  _395
REMARK  163  A    between atoms: _399  and  _401
REMARK  164  A    between atoms: _401  and  _402
REMARK  165  A    between atoms: _405  and  _407
REMARK  166  A    between atoms: _407  and  _408
REMARK  167  A    between atoms: _407  and  _410
REMARK  168  A    between atoms: _410  and  _411
REMARK  169  A    between atoms: _417  and  _419
REMARK  170  A    between atoms: _419  and  _420
REMARK  171  A    between atoms: _419  and  _422
REMARK  172  A    between atoms: _422  and  _423
REMARK  173  A    between atoms: _426  and  _428
REMARK  174  A    between atoms: _428  and  _429
REMARK  175  A    between atoms: _428  and  _431
REMARK  176  A    between atoms: _431  and  _432
REMARK  177  A    between atoms: _435  and  _437
REMARK  178  A    between atoms: _437  and  _438
REMARK  179  A    between atoms: _437  and  _440
REMARK  180  A    between atoms: _443  and  _445
REMARK  181  A    between atoms: _445  and  _446
REMARK  182  A    between atoms: _445  and  _448
REMARK  183  A    between atoms: _448  and  _449
REMARK  184  A    between atoms: _449  and  _450
REMARK  185  A    between atoms: _450  and  _451
REMARK  186  A    between atoms: _451  and  _452
REMARK  187  A    between atoms: _456  and  _458
REMARK  188  A    between atoms: _458  and  _459
REMARK  189  A    between atoms: _458  and  _461
REMARK  190  A    between atoms: _461  and  _462
REMARK  191  A    between atoms: _462  and  _463
REMARK  192  A    between atoms: _468  and  _470
REMARK  193  A    between atoms: _470  and  _471
REMARK  194  A    between atoms: _470  and  _473
REMARK  195  A    between atoms: _473  and  _474
REMARK  196  A    between atoms: _480  and  _482
REMARK  197  A    between atoms: _482  and  _483
REMARK  198  A    between atoms: _482  and  _485
REMARK  199  A    between atoms: _485  and  _486
REMARK  200  A    between atoms: _490  and  _491
REMARK  201  A    between atoms: _497  and  _498
REMARK  202  A    between atoms: _503  and  _505
REMARK  203  A    between atoms: _505  and  _506
REMARK  204  A    between atoms: _505  and  _508
REMARK  205  A    between atoms: _508  and  _509
REMARK  206  A    between atoms: _512  and  _514
REMARK  207  A    between atoms: _514  and  _515
REMARK  208  A    between atoms: _514  and  _517
REMARK  209  A    between atoms: _517  and  _518
REMARK  210  A    between atoms: _523  and  _525
REMARK  211  A    between atoms: _525  and  _526
REMARK  212  A    between atoms: _525  and  _528
REMARK  213  A    between atoms: _528  and  _529
REMARK  214  A    between atoms: _532  and  _534
REMARK  215  A    between atoms: _534  and  _535
REMARK  216  A    between atoms: _534  and  _537
REMARK  217  A    between atoms: _537  and  _538
REMARK  218  A    between atoms: _538  and  _539
REMARK  219  A    between atoms: _542  and  _544
REMARK  220  A    between atoms: _544  and  _545
REMARK  221  A    between atoms: _547  and  _549
REMARK  222  A    between atoms: _549  and  _550
REMARK  223  A    between atoms: _549  and  _552
REMARK  224  A    between atoms: _552  and  _553
REMARK  225  A    between atoms: _556  and  _558
REMARK  226  A    between atoms: _558  and  _559
REMARK  227  A    between atoms: _562  and  _564
REMARK  228  A    between atoms: _564  and  _565
REMARK  229  A    between atoms: _564  and  _567
REMARK  230  A    between atoms: _567  and  _568
REMARK  231  A    between atoms: _571  and  _572
REMARK  232  A    between atoms: _577  and  _579
REMARK  233  A    between atoms: _579  and  _580
REMARK  234  A    between atoms: _579  and  _582
REMARK  235  A    between atoms: _582  and  _583
REMARK  236  A    between atoms: _589  and  _591
REMARK  237  A    between atoms: _591  and  _592
REMARK  238  A    between atoms: _591  and  _594
REMARK  239  A    between atoms: _597  and  _599
REMARK  240  A    between atoms: _599  and  _600
REMARK  241  A    between atoms: _599  and  _602
REMARK  242  A    between atoms: _602  and  _603
REMARK  243  A    between atoms: _603  and  _604
REMARK  244  A    between atoms: _607  and  _609
REMARK  245  A    between atoms: _609  and  _610
REMARK  246  A    between atoms: _609  and  _612
REMARK  247  A    between atoms: _612  and  _613
REMARK                            x       y       z     vdW  Elec       q    Type
REMARK                         _______ _______ _______ _____ _____    ______ ____
ROOT
ATOM      1  O   HOH     1      54.161  33.764  41.657  0.00  0.00    +0.000 OA
ENDROOT
TORSDOF 0
REMARK  Name = ../refined-set-2016/1zhy/1zhy_pocket.pdb
REMARK  247 active torsions:
REMARK  status: ('A' for Active; 'I' for Inactive)
REMARK    1  A    between atoms: _1  and  _3
REMARK    2  A    between atoms: _3  and  _4
REMARK    3  A    between atoms: _3  and  _6
REMARK    4  A    between atoms: _6  and  _7
REMARK    5  A    between atoms: _17  and  _19
REMARK    6  A    between atoms: _19  and  _20
REMARK    7  A    between atoms: _19  and  _22
REMARK    8  A    between atoms: _22  and  _23
REMARK    9  A    between atoms: _29  and  _31
REMARK   10  A    between atoms: _31  and  _32
REMARK   11  A    between atoms: _31  and  _34
REMARK   12  A    between atoms: _34  and  _35
REMARK   13  A    between atoms: _38  and  _40
REMARK   14  A    between atoms: _40  and  _41
REMARK   15  A    between atoms: _40  and  _43
REMARK   16  A    between atoms: _43  and  _44
REMARK   17  A    between atoms: _47  and  _49
REMARK   18  A    between atoms: _49  and  _50
REMARK   19  A    between atoms: _49  and  _52
REMARK   20  A    between atoms: _52  and  _53
REMARK   21  A    between atoms: _55  and  _57
REMARK   22  A    between atoms: _57  and  _58
REMARK   23  A    between atoms: _57  and  _60
REMARK   24  A    between atoms: _60  and  _61
REMARK   25  A    between atoms: _64  and  _66
REMARK   26  A    between atoms: _66  and  _67
REMARK   27  A    between atoms: _71  and  _72
REMARK   28  A    between atoms: _77  and  _79
REMARK   29  A    between atoms: _79  and  _80
REMARK   30  A    between atoms: _79  and  _82
REMARK   31  A    between atoms: _82  and  _83
REMARK   32  A    between atoms: _86  and  _88
REMARK   33  A    between atoms: _88  and  _89
REMARK   34  A    between atoms: _88  and  _91
REMARK   35  A    between atoms: _91  and  _92
REMARK   36  A    between atoms: _95  and  _97
REMARK   37  A    between atoms: _97  and  _98
REMARK   38  A    between atoms: _97  and  _100
REMARK   39  A    between atoms: _100  and  _101
REMARK   40  A    between atoms: _103  and  _105
REMARK   41  A    between atoms: _105  and  _106
REMARK   42  A    between atoms: _105  and  _108
REMARK   43  A    between atoms: _108  and  _109
REMARK   44  A    between atoms: _112  and  _114
REMARK   45  A    between atoms: _114  and  _115
REMARK   46  A    between atoms: _114  and  _117
REMARK   47  A    between atoms: _117  and  _118
REMARK   48  A    between atoms: _118  and  _119
REMARK   49  A    between atoms: _122  and  _124
REMARK   50  A    between atoms: _124  and  _125
REMARK   51  A    between atoms: _124  and  _127
REMARK   52  A    between atoms: _127  and  _128
REMARK   53  A    between atoms: _134  and  _136
REMARK   54  A    between atoms: _136  and  _137
REMARK   55  A    between atoms: _136  and  _139
REMARK   56  A    between atoms: _139  and  _140
REMARK   57  A    between atoms: _142  and  _144
REMARK   58  A    between atoms: _144  and  _145
REMARK   59  A    between atoms: _144  and  _147
REMARK   60  A    between atoms: _147  and  _148
REMARK   61  A    between atoms: _148  and  _149
REMARK   62  A    between atoms: _154  and  _156
REMARK   63  A    between atoms: _156  and  _157
REMARK   64  A    between atoms: _156  and  _159
REMARK   65  A    between atoms: _159  and  _160
REMARK   66  A    between atoms: _165  and  _166
REMARK   67  A    between atoms: _168  and  _170
REMARK   68  A    between atoms: _170  and  _171
REMARK   69  A    between atoms: _170  and  _173
REMARK   70  A    between atoms: _173  and  _174
REMARK   71  A    between atoms: _184  and  _186
REMARK   72  A    between atoms: _186  and  _187
REMARK   73  A    between atoms: _186  and  _189
REMARK   74  A    between atoms: _189  and  _190
REMARK   75  A    between atoms: _193  and  _195
REMARK   76  A    between atoms: _195  and  _196
REMARK   77  A    between atoms: _195  and  _198
REMARK   78  A    between atoms: _198  and  _199
REMARK   79  A    between atoms: _202  and  _204
REMARK   80  A    between atoms: _204  and  _205
REMARK   81  A    between atoms: _204  and  _207
REMARK   82  A    between atoms: _207  and  _208
REMARK   83  A    between atoms: _210  and  _212
REMARK   84  A    between atoms: _212  and  _213
REMARK   85  A    between atoms: _212  and  _215
REMARK   86  A    between atoms: _215  and  _216
REMARK   87  A    between atoms: _216  and  _217
REMARK   88  A    between atoms: _222  and  _224
REMARK   89  A    between atoms: _224  and  _225
REMARK   90  A    between atoms: _224  and  _227
REMARK   91  A    between atoms: _227  and  _228
REMARK   92  A    between atoms: _233  and  _234
REMARK   93  A    between atoms: _236  and  _238
REMARK   94  A    between atoms: _238  and  _239
REMARK   95  A    between atoms: _238  and  _241
REMARK   96  A    between atoms: _243  and  _245
REMARK   97  A    between atoms: _245  and  _246
REMARK   98  A    between atoms: _245  and  _248
REMARK   99  A    between atoms: _248  and  _249
REMARK  100  A    between atoms: _251  and  _253
REMARK  101  A    between atoms: _253  and  _254
REMARK  102  A    between atoms: _253  and  _256
REMARK  103  A    between atoms: _256  and  _257
REMARK  104  A    between atoms: _257  and  _258
REMARK  105  A    between atoms: _258  and  _259
REMARK  106  A    between atoms: _268  and  _270
REMARK  107  A    between atoms: _270  and  _271
REMARK  108  A    between atoms: _270  and  _273
REMARK  109  A    between atoms: _273  and  _274
REMARK  110  A    between atoms: _276  and  _278
REMARK  111  A    between atoms: _278  and  _279
REMARK  112  A    between atoms: _278  and  _281
REMARK  113  A    between atoms: _281  and  _282
REMARK  114  A    between atoms: _282  and  _283
REMARK  115  A    between atoms: _286  and  _288
REMARK  116  A    between atoms: _288  and  _289
REMARK  117  A    between atoms: _288  and  _291
REMARK  118  A    between atoms: _291  and  _292
REMARK  119  A    between atoms: _292  and  _293
REMARK  120  A    between atoms: _293  and  _294
REMARK  121  A    between atoms: _294  and  _295
REMARK  122  A    between atoms: _299  and  _301
REMARK  123  A    between atoms: _301  and  _302
REMARK  124  A    between atoms: _301  and  _304
REMARK  125  A    between atoms: _304  and  _305
REMARK  126  A    between atoms: _305  and  _306
REMARK  127  A    between atoms: _306  and  _307
REMARK  128  A    between atoms: _307  and  _308
REMARK  129  A    between atoms: _313  and  _314
REMARK  130  A    between atoms: _319  and  _321
REMARK  131  A    between atoms: _321  and  _322
REMARK  132  A    between atoms: _321  and  _324
REMARK  133  A    between atoms: _324  and  _325
REMARK  134  A    between atoms: _328  and  _330
REMARK  135  A    between atoms: _330  and  _331
REMARK  136  A    between atoms: _330  and  _333
REMARK  137  A    between atoms: _333  and  _334
REMARK  138  A    between atoms: _340  and  _342
REMARK  139  A    between atoms: _342  and  _343
REMARK  140  A    between atoms: _342  and  _345
REMARK  141  A    between atoms: _345  and  _346
REMARK  142  A    between atoms: _351  and  _352
REMARK  143  A    between atoms: _354  and  _356
REMARK  144  A    between atoms: _356  and  _357
REMARK  145  A    between atoms: _356  and  _359
REMARK  146  A    between atoms: _359  and  _360
REMARK  147  A    between atoms: _365  and  _367
REMARK  148  A    between atoms: _367  and  _368
REMARK  149  A    between atoms: _367  and  _370
REMARK  150  A    between atoms: _370  and  _371
REMARK  151  A    between atoms: _371  and  _372
REMARK  152  A    between atoms: _377  and  _379
REMARK  153  A    between atoms: _379  and  _380
REMARK  154  A    between atoms: _379  and  _382
REMARK  155  A    between atoms: _382  and  _383
REMARK  156  A    between atoms: _386  and  _388
REMARK  157  A    between atoms: _388  and  _389
REMARK  158  A    between atoms: _388  and  _391
REMARK  159  A    between atoms: _391  and  _392
REMARK  160  A    between atoms: _392  and  _393
REMARK  161  A    between atoms: _393  and  _394
REMARK  162  A    between atoms: _394  and  _395
REMARK  163  A    between atoms: _399  and  _401
REMARK  164  A    between atoms: _401  and  _402
REMARK  165  A    between atoms: _405  and  _407
REMARK  166  A    between atoms: _407  and  _408
REMARK  167  A    between atoms: _407  and  _410
REMARK  168  A    between atoms: _410  and  _411
REMARK  169  A    between atoms: _417  and  _419
REMARK  170  A    between atoms: _419  and  _420
REMARK  171  A    between atoms: _419  and  _422
REMARK  172  A    between atoms: _422  and  _423
REMARK  173  A    between atoms: _426  and  _428
REMARK  174  A    between atoms: _428  and  _429
REMARK  175  A    between atoms: _428  and  _431
REMARK  176  A    between atoms: _431  and  _432
REMARK  177  A    between atoms: _435  and  _437
REMARK  178  A    between atoms: _437  and  _438
REMARK  179  A    between atoms: _437  and  _440
REMARK  180  A    between atoms: _443  and  _445
REMARK  181  A    between atoms: _445  and  _446
REMARK  182  A    between atoms: _445  and  _448
REMARK  183  A    between atoms: _448  and  _449
REMARK  184  A    between atoms: _449  and  _450
REMARK  185  A    between atoms: _450  and  _451
REMARK  186  A    between atoms: _451  and  _452
REMARK  187  A    between atoms: _456  and  _458
REMARK  188  A    between atoms: _458  and  _459
REMARK  189  A    between atoms: _458  and  _461
REMARK  190  A    between atoms: _461  and  _462
REMARK  191  A    between atoms: _462  and  _463
REMARK  192  A    between atoms: _468  and  _470
REMARK  193  A    between atoms: _470  and  _471
REMARK  194  A    between atoms: _470  and  _473
REMARK  195  A    between atoms: _473  and  _474
REMARK  196  A    between atoms: _480  and  _482
REMARK  197  A    between atoms: _482  and  _483
REMARK  198  A    between atoms: _482  and  _485
REMARK  199  A    between atoms: _485  and  _486
REMARK  200  A    between atoms: _490  and  _491
REMARK  201  A    between atoms: _497  and  _498
REMARK  202  A    between atoms: _503  and  _505
REMARK  203  A    between atoms: _505  and  _506
REMARK  204  A    between atoms: _505  and  _508
REMARK  205  A    between atoms: _508  and  _509
REMARK  206  A    between atoms: _512  and  _514
REMARK  207  A    between atoms: _514  and  _515
REMARK  208  A    between atoms: _514  and  _517
REMARK  209  A    between atoms: _517  and  _518
REMARK  210  A    between atoms: _523  and  _525
REMARK  211  A    between atoms: _525  and  _526
REMARK  212  A    between atoms: _525  and  _528
REMARK  213  A    between atoms: _528  and  _529
REMARK  214  A    between atoms: _532  and  _534
REMARK  215  A    between atoms: _534  and  _535
REMARK  216  A    between atoms: _534  and  _537
REMARK  217  A    between atoms: _537  and  _538
REMARK  218  A    between atoms: _538  and  _539
REMARK  219  A    between atoms: _542  and  _544
REMARK  220  A    between atoms: _544  and  _545
REMARK  221  A    between atoms: _547  and  _549
REMARK  222  A    between atoms: _549  and  _550
REMARK  223  A    between atoms: _549  and  _552
REMARK  224  A    between atoms: _552  and  _553
REMARK  225  A    between atoms: _556  and  _558
REMARK  226  A    between atoms: _558  and  _559
REMARK  227  A    between atoms: _562  and  _564
REMARK  228  A    between atoms: _564  and  _565
REMARK  229  A    between atoms: _564  and  _567
REMARK  230  A    between atoms: _567  and  _568
REMARK  231  A    between atoms: _571  and  _572
REMARK  232  A    between atoms: _577  and  _579
REMARK  233  A    between atoms: _579  and  _580
REMARK  234  A    between atoms: _579  and  _582
REMARK  235  A    between atoms: _582  and  _583
REMARK  236  A    between atoms: _589  and  _591
REMARK  237  A    between atoms: _591  and  _592
REMARK  238  A    between atoms: _591  and  _594
REMARK  239  A    between atoms: _597  and  _599
REMARK  240  A    between atoms: _599  and  _600
REMARK  241  A    between atoms: _599  and  _602
REMARK  242  A    between atoms: _602  and  _603
REMARK  243  A    between atoms: _603  and  _604
REMARK  244  A    between atoms: _607  and  _609
REMARK  245  A    between atoms: _609  and  _610
REMARK  246  A    between atoms: _609  and  _612
REMARK  247  A    between atoms: _612  and  _613
REMARK                            x       y       z     vdW  Elec       q    Type
REMARK                         _______ _______ _______ _____ _____    ______ ____
ROOT
ATOM      1  O   HOH     1      56.037  32.344  39.886  0.00  0.00    +0.000 OA
ENDROOT
TORSDOF 0
REMARK  Name = ../refined-set-2016/1zhy/1zhy_pocket.pdb
REMARK  247 active torsions:
REMARK  status: ('A' for Active; 'I' for Inactive)
REMARK    1  A    between atoms: _1  and  _3
REMARK    2  A    between atoms: _3  and  _4
REMARK    3  A    between atoms: _3  and  _6
REMARK    4  A    between atoms: _6  and  _7
REMARK    5  A    between atoms: _17  and  _19
REMARK    6  A    between atoms: _19  and  _20
REMARK    7  A    between atoms: _19  and  _22
REMARK    8  A    between atoms: _22  and  _23
REMARK    9  A    between atoms: _29  and  _31
REMARK   10  A    between atoms: _31  and  _32
REMARK   11  A    between atoms: _31  and  _34
REMARK   12  A    between atoms: _34  and  _35
REMARK   13  A    between atoms: _38  and  _40
REMARK   14  A    between atoms: _40  and  _41
REMARK   15  A    between atoms: _40  and  _43
REMARK   16  A    between atoms: _43  and  _44
REMARK   17  A    between atoms: _47  and  _49
REMARK   18  A    between atoms: _49  and  _50
REMARK   19  A    between atoms: _49  and  _52
REMARK   20  A    between atoms: _52  and  _53
REMARK   21  A    between atoms: _55  and  _57
REMARK   22  A    between atoms: _57  and  _58
REMARK   23  A    between atoms: _57  and  _60
REMARK   24  A    between atoms: _60  and  _61
REMARK   25  A    between atoms: _64  and  _66
REMARK   26  A    between atoms: _66  and  _67
REMARK   27  A    between atoms: _71  and  _72
REMARK   28  A    between atoms: _77  and  _79
REMARK   29  A    between atoms: _79  and  _80
REMARK   30  A    between atoms: _79  and  _82
REMARK   31  A    between atoms: _82  and  _83
REMARK   32  A    between atoms: _86  and  _88
REMARK   33  A    between atoms: _88  and  _89
REMARK   34  A    between atoms: _88  and  _91
REMARK   35  A    between atoms: _91  and  _92
REMARK   36  A    between atoms: _95  and  _97
REMARK   37  A    between atoms: _97  and  _98
REMARK   38  A    between atoms: _97  and  _100
REMARK   39  A    between atoms: _100  and  _101
REMARK   40  A    between atoms: _103  and  _105
REMARK   41  A    between atoms: _105  and  _106
REMARK   42  A    between atoms: _105  and  _108
REMARK   43  A    between atoms: _108  and  _109
REMARK   44  A    between atoms: _112  and  _114
REMARK   45  A    between atoms: _114  and  _115
REMARK   46  A    between atoms: _114  and  _117
REMARK   47  A    between atoms: _117  and  _118
REMARK   48  A    between atoms: _118  and  _119
REMARK   49  A    between atoms: _122  and  _124
REMARK   50  A    between atoms: _124  and  _125
REMARK   51  A    between atoms: _124  and  _127
REMARK   52  A    between atoms: _127  and  _128
REMARK   53  A    between atoms: _134  and  _136
REMARK   54  A    between atoms: _136  and  _137
REMARK   55  A    between atoms: _136  and  _139
REMARK   56  A    between atoms: _139  and  _140
REMARK   57  A    between atoms: _142  and  _144
REMARK   58  A    between atoms: _144  and  _145
REMARK   59  A    between atoms: _144  and  _147
REMARK   60  A    between atoms: _147  and  _148
REMARK   61  A    between atoms: _148  and  _149
REMARK   62  A    between atoms: _154  and  _156
REMARK   63  A    between atoms: _156  and  _157
REMARK   64  A    between atoms: _156  and  _159
REMARK   65  A    between atoms: _159  and  _160
REMARK   66  A    between atoms: _165  and  _166
REMARK   67  A    between atoms: _168  and  _170
REMARK   68  A    between atoms: _170  and  _171
REMARK   69  A    between atoms: _170  and  _173
REMARK   70  A    between atoms: _173  and  _174
REMARK   71  A    between atoms: _184  and  _186
REMARK   72  A    between atoms: _186  and  _187
REMARK   73  A    between atoms: _186  and  _189
REMARK   74  A    between atoms: _189  and  _190
REMARK   75  A    between atoms: _193  and  _195
REMARK   76  A    between atoms: _195  and  _196
REMARK   77  A    between atoms: _195  and  _198
REMARK   78  A    between atoms: _198  and  _199
REMARK   79  A    between atoms: _202  and  _204
REMARK   80  A    between atoms: _204  and  _205
REMARK   81  A    between atoms: _204  and  _207
REMARK   82  A    between atoms: _207  and  _208
REMARK   83  A    between atoms: _210  and  _212
REMARK   84  A    between atoms: _212  and  _213
REMARK   85  A    between atoms: _212  and  _215
REMARK   86  A    between atoms: _215  and  _216
REMARK   87  A    between atoms: _216  and  _217
REMARK   88  A    between atoms: _222  and  _224
REMARK   89  A    between atoms: _224  and  _225
REMARK   90  A    between atoms: _224  and  _227
REMARK   91  A    between atoms: _227  and  _228
REMARK   92  A    between atoms: _233  and  _234
REMARK   93  A    between atoms: _236  and  _238
REMARK   94  A    between atoms: _238  and  _239
REMARK   95  A    between atoms: _238  and  _241
REMARK   96  A    between atoms: _243  and  _245
REMARK   97  A    between atoms: _245  and  _246
REMARK   98  A    between atoms: _245  and  _248
REMARK   99  A    between atoms: _248  and  _249
REMARK  100  A    between atoms: _251  and  _253
REMARK  101  A    between atoms: _253  and  _254
REMARK  102  A    between atoms: _253  and  _256
REMARK  103  A    between atoms: _256  and  _257
REMARK  104  A    between atoms: _257  and  _258
REMARK  105  A    between atoms: _258  and  _259
REMARK  106  A    between atoms: _268  and  _270
REMARK  107  A    between atoms: _270  and  _271
REMARK  108  A    between atoms: _270  and  _273
REMARK  109  A    between atoms: _273  and  _274
REMARK  110  A    between atoms: _276  and  _278
REMARK  111  A    between atoms: _278  and  _279
REMARK  112  A    between atoms: _278  and  _281
REMARK  113  A    between atoms: _281  and  _282
REMARK  114  A    between atoms: _282  and  _283
REMARK  115  A    between atoms: _286  and  _288
REMARK  116  A    between atoms: _288  and  _289
REMARK  117  A    between atoms: _288  and  _291
REMARK  118  A    between atoms: _291  and  _292
REMARK  119  A    between atoms: _292  and  _293
REMARK  120  A    between atoms: _293  and  _294
REMARK  121  A    between atoms: _294  and  _295
REMARK  122  A    between atoms: _299  and  _301
REMARK  123  A    between atoms: _301  and  _302
REMARK  124  A    between atoms: _301  and  _304
REMARK  125  A    between atoms: _304  and  _305
REMARK  126  A    between atoms: _305  and  _306
REMARK  127  A    between atoms: _306  and  _307
REMARK  128  A    between atoms: _307  and  _308
REMARK  129  A    between atoms: _313  and  _314
REMARK  130  A    between atoms: _319  and  _321
REMARK  131  A    between atoms: _321  and  _322
REMARK  132  A    between atoms: _321  and  _324
REMARK  133  A    between atoms: _324  and  _325
REMARK  134  A    between atoms: _328  and  _330
REMARK  135  A    between atoms: _330  and  _331
REMARK  136  A    between atoms: _330  and  _333
REMARK  137  A    between atoms: _333  and  _334
REMARK  138  A    between atoms: _340  and  _342
REMARK  139  A    between atoms: _342  and  _343
REMARK  140  A    between atoms: _342  and  _345
REMARK  141  A    between atoms: _345  and  _346
REMARK  142  A    between atoms: _351  and  _352
REMARK  143  A    between atoms: _354  and  _356
REMARK  144  A    between atoms: _356  and  _357
REMARK  145  A    between atoms: _356  and  _359
REMARK  146  A    between atoms: _359  and  _360
REMARK  147  A    between atoms: _365  and  _367
REMARK  148  A    between atoms: _367  and  _368
REMARK  149  A    between atoms: _367  and  _370
REMARK  150  A    between atoms: _370  and  _371
REMARK  151  A    between atoms: _371  and  _372
REMARK  152  A    between atoms: _377  and  _379
REMARK  153  A    between atoms: _379  and  _380
REMARK  154  A    between atoms: _379  and  _382
REMARK  155  A    between atoms: _382  and  _383
REMARK  156  A    between atoms: _386  and  _388
REMARK  157  A    between atoms: _388  and  _389
REMARK  158  A    between atoms: _388  and  _391
REMARK  159  A    between atoms: _391  and  _392
REMARK  160  A    between atoms: _392  and  _393
REMARK  161  A    between atoms: _393  and  _394
REMARK  162  A    between atoms: _394  and  _395
REMARK  163  A    between atoms: _399  and  _401
REMARK  164  A    between atoms: _401  and  _402
REMARK  165  A    between atoms: _405  and  _407
REMARK  166  A    between atoms: _407  and  _408
REMARK  167  A    between atoms: _407  and  _410
REMARK  168  A    between atoms: _410  and  _411
REMARK  169  A    between atoms: _417  and  _419
REMARK  170  A    between atoms: _419  and  _420
REMARK  171  A    between atoms: _419  and  _422
REMARK  172  A    between atoms: _422  and  _423
REMARK  173  A    between atoms: _426  and  _428
REMARK  174  A    between atoms: _428  and  _429
REMARK  175  A    between atoms: _428  and  _431
REMARK  176  A    between atoms: _431  and  _432
REMARK  177  A    between atoms: _435  and  _437
REMARK  178  A    between atoms: _437  and  _438
REMARK  179  A    between atoms: _437  and  _440
REMARK  180  A    between atoms: _443  and  _445
REMARK  181  A    between atoms: _445  and  _446
REMARK  182  A    between atoms: _445  and  _448
REMARK  183  A    between atoms: _448  and  _449
REMARK  184  A    between atoms: _449  and  _450
REMARK  185  A    between atoms: _450  and  _451
REMARK  186  A    between atoms: _451  and  _452
REMARK  187  A    between atoms: _456  and  _458
REMARK  188  A    between atoms: _458  and  _459
REMARK  189  A    between atoms: _458  and  _461
REMARK  190  A    between atoms: _461  and  _462
REMARK  191  A    between atoms: _462  and  _463
REMARK  192  A    between atoms: _468  and  _470
REMARK  193  A    between atoms: _470  and  _471
REMARK  194  A    between atoms: _470  and  _473
REMARK  195  A    between atoms: _473  and  _474
REMARK  196  A    between atoms: _480  and  _482
REMARK  197  A    between atoms: _482  and  _483
REMARK  198  A    between atoms: _482  and  _485
REMARK  199  A    between atoms: _485  and  _486
REMARK  200  A    between atoms: _490  and  _491
REMARK  201  A    between atoms: _497  and  _498
REMARK  202  A    between atoms: _503  and  _505
REMARK  203  A    between atoms: _505  and  _506
REMARK  204  A    between atoms: _505  and  _508
REMARK  205  A    between atoms: _508  and  _509
REMARK  206  A    between atoms: _512  and  _514
REMARK  207  A    between atoms: _514  and  _515
REMARK  208  A    between atoms: _514  and  _517
REMARK  209  A    between atoms: _517  and  _518
REMARK  210  A    between atoms: _523  and  _525
REMARK  211  A    between atoms: _525  and  _526
REMARK  212  A    between atoms: _525  and  _528
REMARK  213  A    between atoms: _528  and  _529
REMARK  214  A    between atoms: _532  and  _534
REMARK  215  A    between atoms: _534  and  _535
REMARK  216  A    between atoms: _534  and  _537
REMARK  217  A    between atoms: _537  and  _538
REMARK  218  A    between atoms: _538  and  _539
REMARK  219  A    between atoms: _542  and  _544
REMARK  220  A    between atoms: _544  and  _545
REMARK  221  A    between atoms: _547  and  _549
REMARK  222  A    between atoms: _549  and  _550
REMARK  223  A    between atoms: _549  and  _552
REMARK  224  A    between atoms: _552  and  _553
REMARK  225  A    between atoms: _556  and  _558
REMARK  226  A    between atoms: _558  and  _559
REMARK  227  A    between atoms: _562  and  _564
REMARK  228  A    between atoms: _564  and  _565
REMARK  229  A    between atoms: _564  and  _567
REMARK  230  A    between atoms: _567  and  _568
REMARK  231  A    between atoms: _571  and  _572
REMARK  232  A    between atoms: _577  and  _579
REMARK  233  A    between atoms: _579  and  _580
REMARK  234  A    between atoms: _579  and  _582
REMARK  235  A    between atoms: _582  and  _583
REMARK  236  A    between atoms: _589  and  _591
REMARK  237  A    between atoms: _591  and  _592
REMARK  238  A    between atoms: _591  and  _594
REMARK  239  A    between atoms: _597  and  _599
REMARK  240  A    between atoms: _599  and  _600
REMARK  241  A    between atoms: _599  and  _602
REMARK  242  A    between atoms: _602  and  _603
REMARK  243  A    between atoms: _603  and  _604
REMARK  244  A    between atoms: _607  and  _609
REMARK  245  A    between atoms: _609  and  _610
REMARK  246  A    between atoms: _609  and  _612
REMARK  247  A    between atoms: _612  and  _613
REMARK                            x       y       z     vdW  Elec       q    Type
REMARK                         _______ _______ _______ _____ _____    ______ ____
ROOT
ATOM      1  O   HOH     1      61.340  36.000  41.616  0.00  0.00    +0.000 OA
ENDROOT
TORSDOF 0
REMARK  Name = ../refined-set-2016/1zhy/1zhy_pocket.pdb
REMARK  247 active torsions:
REMARK  status: ('A' for Active; 'I' for Inactive)
REMARK    1  A    between atoms: _1  and  _3
REMARK    2  A    between atoms: _3  and  _4
REMARK    3  A    between atoms: _3  and  _6
REMARK    4  A    between atoms: _6  and  _7
REMARK    5  A    between atoms: _17  and  _19
REMARK    6  A    between atoms: _19  and  _20
REMARK    7  A    between atoms: _19  and  _22
REMARK    8  A    between atoms: _22  and  _23
REMARK    9  A    between atoms: _29  and  _31
REMARK   10  A    between atoms: _31  and  _32
REMARK   11  A    between atoms: _31  and  _34
REMARK   12  A    between atoms: _34  and  _35
REMARK   13  A    between atoms: _38  and  _40
REMARK   14  A    between atoms: _40  and  _41
REMARK   15  A    between atoms: _40  and  _43
REMARK   16  A    between atoms: _43  and  _44
REMARK   17  A    between atoms: _47  and  _49
REMARK   18  A    between atoms: _49  and  _50
REMARK   19  A    between atoms: _49  and  _52
REMARK   20  A    between atoms: _52  and  _53
REMARK   21  A    between atoms: _55  and  _57
REMARK   22  A    between atoms: _57  and  _58
REMARK   23  A    between atoms: _57  and  _60
REMARK   24  A    between atoms: _60  and  _61
REMARK   25  A    between atoms: _64  and  _66
REMARK   26  A    between atoms: _66  and  _67
REMARK   27  A    between atoms: _71  and  _72
REMARK   28  A    between atoms: _77  and  _79
REMARK   29  A    between atoms: _79  and  _80
REMARK   30  A    between atoms: _79  and  _82
REMARK   31  A    between atoms: _82  and  _83
REMARK   32  A    between atoms: _86  and  _88
REMARK   33  A    between atoms: _88  and  _89
REMARK   34  A    between atoms: _88  and  _91
REMARK   35  A    between atoms: _91  and  _92
REMARK   36  A    between atoms: _95  and  _97
REMARK   37  A    between atoms: _97  and  _98
REMARK   38  A    between atoms: _97  and  _100
REMARK   39  A    between atoms: _100  and  _101
REMARK   40  A    between atoms: _103  and  _105
REMARK   41  A    between atoms: _105  and  _106
REMARK   42  A    between atoms: _105  and  _108
REMARK   43  A    between atoms: _108  and  _109
REMARK   44  A    between atoms: _112  and  _114
REMARK   45  A    between atoms: _114  and  _115
REMARK   46  A    between atoms: _114  and  _117
REMARK   47  A    between atoms: _117  and  _118
REMARK   48  A    between atoms: _118  and  _119
REMARK   49  A    between atoms: _122  and  _124
REMARK   50  A    between atoms: _124  and  _125
REMARK   51  A    between atoms: _124  and  _127
REMARK   52  A    between atoms: _127  and  _128
REMARK   53  A    between atoms: _134  and  _136
REMARK   54  A    between atoms: _136  and  _137
REMARK   55  A    between atoms: _136  and  _139
REMARK   56  A    between atoms: _139  and  _140
REMARK   57  A    between atoms: _142  and  _144
REMARK   58  A    between atoms: _144  and  _145
REMARK   59  A    between atoms: _144  and  _147
REMARK   60  A    between atoms: _147  and  _148
REMARK   61  A    between atoms: _148  and  _149
REMARK   62  A    between atoms: _154  and  _156
REMARK   63  A    between atoms: _156  and  _157
REMARK   64  A    between atoms: _156  and  _159
REMARK   65  A    between atoms: _159  and  _160
REMARK   66  A    between atoms: _165  and  _166
REMARK   67  A    between atoms: _168  and  _170
REMARK   68  A    between atoms: _170  and  _171
REMARK   69  A    between atoms: _170  and  _173
REMARK   70  A    between atoms: _173  and  _174
REMARK   71  A    between atoms: _184  and  _186
REMARK   72  A    between atoms: _186  and  _187
REMARK   73  A    between atoms: _186  and  _189
REMARK   74  A    between atoms: _189  and  _190
REMARK   75  A    between atoms: _193  and  _195
REMARK   76  A    between atoms: _195  and  _196
REMARK   77  A    between atoms: _195  and  _198
REMARK   78  A    between atoms: _198  and  _199
REMARK   79  A    between atoms: _202  and  _204
REMARK   80  A    between atoms: _204  and  _205
REMARK   81  A    between atoms: _204  and  _207
REMARK   82  A    between atoms: _207  and  _208
REMARK   83  A    between atoms: _210  and  _212
REMARK   84  A    between atoms: _212  and  _213
REMARK   85  A    between atoms: _212  and  _215
REMARK   86  A    between atoms: _215  and  _216
REMARK   87  A    between atoms: _216  and  _217
REMARK   88  A    between atoms: _222  and  _224
REMARK   89  A    between atoms: _224  and  _225
REMARK   90  A    between atoms: _224  and  _227
REMARK   91  A    between atoms: _227  and  _228
REMARK   92  A    between atoms: _233  and  _234
REMARK   93  A    between atoms: _236  and  _238
REMARK   94  A    between atoms: _238  and  _239
REMARK   95  A    between atoms: _238  and  _241
REMARK   96  A    between atoms: _243  and  _245
REMARK   97  A    between atoms: _245  and  _246
REMARK   98  A    between atoms: _245  and  _248
REMARK   99  A    between atoms: _248  and  _249
REMARK  100  A    between atoms: _251  and  _253
REMARK  101  A    between atoms: _253  and  _254
REMARK  102  A    between atoms: _253  and  _256
REMARK  103  A    between atoms: _256  and  _257
REMARK  104  A    between atoms: _257  and  _258
REMARK  105  A    between atoms: _258  and  _259
REMARK  106  A    between atoms: _268  and  _270
REMARK  107  A    between atoms: _270  and  _271
REMARK  108  A    between atoms: _270  and  _273
REMARK  109  A    between atoms: _273  and  _274
REMARK  110  A    between atoms: _276  and  _278
REMARK  111  A    between atoms: _278  and  _279
REMARK  112  A    between atoms: _278  and  _281
REMARK  113  A    between atoms: _281  and  _282
REMARK  114  A    between atoms: _282  and  _283
REMARK  115  A    between atoms: _286  and  _288
REMARK  116  A    between atoms: _288  and  _289
REMARK  117  A    between atoms: _288  and  _291
REMARK  118  A    between atoms: _291  and  _292
REMARK  119  A    between atoms: _292  and  _293
REMARK  120  A    between atoms: _293  and  _294
REMARK  121  A    between atoms: _294  and  _295
REMARK  122  A    between atoms: _299  and  _301
REMARK  123  A    between atoms: _301  and  _302
REMARK  124  A    between atoms: _301  and  _304
REMARK  125  A    between atoms: _304  and  _305
REMARK  126  A    between atoms: _305  and  _306
REMARK  127  A    between atoms: _306  and  _307
REMARK  128  A    between atoms: _307  and  _308
REMARK  129  A    between atoms: _313  and  _314
REMARK  130  A    between atoms: _319  and  _321
REMARK  131  A    between atoms: _321  and  _322
REMARK  132  A    between atoms: _321  and  _324
REMARK  133  A    between atoms: _324  and  _325
REMARK  134  A    between atoms: _328  and  _330
REMARK  135  A    between atoms: _330  and  _331
REMARK  136  A    between atoms: _330  and  _333
REMARK  137  A    between atoms: _333  and  _334
REMARK  138  A    between atoms: _340  and  _342
REMARK  139  A    between atoms: _342  and  _343
REMARK  140  A    between atoms: _342  and  _345
REMARK  141  A    between atoms: _345  and  _346
REMARK  142  A    between atoms: _351  and  _352
REMARK  143  A    between atoms: _354  and  _356
REMARK  144  A    between atoms: _356  and  _357
REMARK  145  A    between atoms: _356  and  _359
REMARK  146  A    between atoms: _359  and  _360
REMARK  147  A    between atoms: _365  and  _367
REMARK  148  A    between atoms: _367  and  _368
REMARK  149  A    between atoms: _367  and  _370
REMARK  150  A    between atoms: _370  and  _371
REMARK  151  A    between atoms: _371  and  _372
REMARK  152  A    between atoms: _377  and  _379
REMARK  153  A    between atoms: _379  and  _380
REMARK  154  A    between atoms: _379  and  _382
REMARK  155  A    between atoms: _382  and  _383
REMARK  156  A    between atoms: _386  and  _388
REMARK  157  A    between atoms: _388  and  _389
REMARK  158  A    between atoms: _388  and  _391
REMARK  159  A    between atoms: _391  and  _392
REMARK  160  A    between atoms: _392  and  _393
REMARK  161  A    between atoms: _393  and  _394
REMARK  162  A    between atoms: _394  and  _395
REMARK  163  A    between atoms: _399  and  _401
REMARK  164  A    between atoms: _401  and  _402
REMARK  165  A    between atoms: _405  and  _407
REMARK  166  A    between atoms: _407  and  _408
REMARK  167  A    between atoms: _407  and  _410
REMARK  168  A    between atoms: _410  and  _411
REMARK  169  A    between atoms: _417  and  _419
REMARK  170  A    between atoms: _419  and  _420
REMARK  171  A    between atoms: _419  and  _422
REMARK  172  A    between atoms: _422  and  _423
REMARK  173  A    between atoms: _426  and  _428
REMARK  174  A    between atoms: _428  and  _429
REMARK  175  A    between atoms: _428  and  _431
REMARK  176  A    between atoms: _431  and  _432
REMARK  177  A    between atoms: _435  and  _437
REMARK  178  A    between atoms: _437  and  _438
REMARK  179  A    between atoms: _437  and  _440
REMARK  180  A    between atoms: _443  and  _445
REMARK  181  A    between atoms: _445  and  _446
REMARK  182  A    between atoms: _445  and  _448
REMARK  183  A    between atoms: _448  and  _449
REMARK  184  A    between atoms: _449  and  _450
REMARK  185  A    between atoms: _450  and  _451
REMARK  186  A    between atoms: _451  and  _452
REMARK  187  A    between atoms: _456  and  _458
REMARK  188  A    between atoms: _458  and  _459
REMARK  189  A    between atoms: _458  and  _461
REMARK  190  A    between atoms: _461  and  _462
REMARK  191  A    between atoms: _462  and  _463
REMARK  192  A    between atoms: _468  and  _470
REMARK  193  A    between atoms: _470  and  _471
REMARK  194  A    between atoms: _470  and  _473
REMARK  195  A    between atoms: _473  and  _474
REMARK  196  A    between atoms: _480  and  _482
REMARK  197  A    between atoms: _482  and  _483
REMARK  198  A    between atoms: _482  and  _485
REMARK  199  A    between atoms: _485  and  _486
REMARK  200  A    between atoms: _490  and  _491
REMARK  201  A    between atoms: _497  and  _498
REMARK  202  A    between atoms: _503  and  _505
REMARK  203  A    between atoms: _505  and  _506
REMARK  204  A    between atoms: _505  and  _508
REMARK  205  A    between atoms: _508  and  _509
REMARK  206  A    between atoms: _512  and  _514
REMARK  207  A    between atoms: _514  and  _515
REMARK  208  A    between atoms: _514  and  _517
REMARK  209  A    between atoms: _517  and  _518
REMARK  210  A    between atoms: _523  and  _525
REMARK  211  A    between atoms: _525  and  _526
REMARK  212  A    between atoms: _525  and  _528
REMARK  213  A    between atoms: _528  and  _529
REMARK  214  A    between atoms: _532  and  _534
REMARK  215  A    between atoms: _534  and  _535
REMARK  216  A    between atoms: _534  and  _537
REMARK  217  A    between atoms: _537  and  _538
REMARK  218  A    between atoms: _538  and  _539
REMARK  219  A    between atoms: _542  and  _544
REMARK  220  A    between atoms: _544  and  _545
REMARK  221  A    between atoms: _547  and  _549
REMARK  222  A    between atoms: _549  and  _550
REMARK  223  A    between atoms: _549  and  _552
REMARK  224  A    between atoms: _552  and  _553
REMARK  225  A    between atoms: _556  and  _558
REMARK  226  A    between atoms: _558  and  _559
REMARK  227  A    between atoms: _562  and  _564
REMARK  228  A    between atoms: _564  and  _565
REMARK  229  A    between atoms: _564  and  _567
REMARK  230  A    between atoms: _567  and  _568
REMARK  231  A    between atoms: _571  and  _572
REMARK  232  A    between atoms: _577  and  _579
REMARK  233  A    between atoms: _579  and  _580
REMARK  234  A    between atoms: _579  and  _582
REMARK  235  A    between atoms: _582  and  _583
REMARK  236  A    between atoms: _589  and  _591
REMARK  237  A    between atoms: _591  and  _592
REMARK  238  A    between atoms: _591  and  _594
REMARK  239  A    between atoms: _597  and  _599
REMARK  240  A    between atoms: _599  and  _600
REMARK  241  A    between atoms: _599  and  _602
REMARK  242  A    between atoms: _602  and  _603
REMARK  243  A    between atoms: _603  and  _604
REMARK  244  A    between atoms: _607  and  _609
REMARK  245  A    between atoms: _609  and  _610
REMARK  246  A    between atoms: _609  and  _612
REMARK  247  A    between atoms: _612  and  _613
REMARK                            x       y       z     vdW  Elec       q    Type
REMARK                         _______ _______ _______ _____ _____    ______ ____
ROOT
ATOM      1  O   HOH     1      59.607  35.945  39.397  0.00  0.00    +0.000 OA
ENDROOT
TORSDOF 0
REMARK  Name = ../refined-set-2016/1zhy/1zhy_pocket.pdb
REMARK  247 active torsions:
REMARK  status: ('A' for Active; 'I' for Inactive)
REMARK    1  A    between atoms: _1  and  _3
REMARK    2  A    between atoms: _3  and  _4
REMARK    3  A    between atoms: _3  and  _6
REMARK    4  A    between atoms: _6  and  _7
REMARK    5  A    between atoms: _17  and  _19
REMARK    6  A    between atoms: _19  and  _20
REMARK    7  A    between atoms: _19  and  _22
REMARK    8  A    between atoms: _22  and  _23
REMARK    9  A    between atoms: _29  and  _31
REMARK   10  A    between atoms: _31  and  _32
REMARK   11  A    between atoms: _31  and  _34
REMARK   12  A    between atoms: _34  and  _35
REMARK   13  A    between atoms: _38  and  _40
REMARK   14  A    between atoms: _40  and  _41
REMARK   15  A    between atoms: _40  and  _43
REMARK   16  A    between atoms: _43  and  _44
REMARK   17  A    between atoms: _47  and  _49
REMARK   18  A    between atoms: _49  and  _50
REMARK   19  A    between atoms: _49  and  _52
REMARK   20  A    between atoms: _52  and  _53
REMARK   21  A    between atoms: _55  and  _57
REMARK   22  A    between atoms: _57  and  _58
REMARK   23  A    between atoms: _57  and  _60
REMARK   24  A    between atoms: _60  and  _61
REMARK   25  A    between atoms: _64  and  _66
REMARK   26  A    between atoms: _66  and  _67
REMARK   27  A    between atoms: _71  and  _72
REMARK   28  A    between atoms: _77  and  _79
REMARK   29  A    between atoms: _79  and  _80
REMARK   30  A    between atoms: _79  and  _82
REMARK   31  A    between atoms: _82  and  _83
REMARK   32  A    between atoms: _86  and  _88
REMARK   33  A    between atoms: _88  and  _89
REMARK   34  A    between atoms: _88  and  _91
REMARK   35  A    between atoms: _91  and  _92
REMARK   36  A    between atoms: _95  and  _97
REMARK   37  A    between atoms: _97  and  _98
REMARK   38  A    between atoms: _97  and  _100
REMARK   39  A    between atoms: _100  and  _101
REMARK   40  A    between atoms: _103  and  _105
REMARK   41  A    between atoms: _105  and  _106
REMARK   42  A    between atoms: _105  and  _108
REMARK   43  A    between atoms: _108  and  _109
REMARK   44  A    between atoms: _112  and  _114
REMARK   45  A    between atoms: _114  and  _115
REMARK   46  A    between atoms: _114  and  _117
REMARK   47  A    between atoms: _117  and  _118
REMARK   48  A    between atoms: _118  and  _119
REMARK   49  A    between atoms: _122  and  _124
REMARK   50  A    between atoms: _124  and  _125
REMARK   51  A    between atoms: _124  and  _127
REMARK   52  A    between atoms: _127  and  _128
REMARK   53  A    between atoms: _134  and  _136
REMARK   54  A    between atoms: _136  and  _137
REMARK   55  A    between atoms: _136  and  _139
REMARK   56  A    between atoms: _139  and  _140
REMARK   57  A    between atoms: _142  and  _144
REMARK   58  A    between atoms: _144  and  _145
REMARK   59  A    between atoms: _144  and  _147
REMARK   60  A    between atoms: _147  and  _148
REMARK   61  A    between atoms: _148  and  _149
REMARK   62  A    between atoms: _154  and  _156
REMARK   63  A    between atoms: _156  and  _157
REMARK   64  A    between atoms: _156  and  _159
REMARK   65  A    between atoms: _159  and  _160
REMARK   66  A    between atoms: _165  and  _166
REMARK   67  A    between atoms: _168  and  _170
REMARK   68  A    between atoms: _170  and  _171
REMARK   69  A    between atoms: _170  and  _173
REMARK   70  A    between atoms: _173  and  _174
REMARK   71  A    between atoms: _184  and  _186
REMARK   72  A    between atoms: _186  and  _187
REMARK   73  A    between atoms: _186  and  _189
REMARK   74  A    between atoms: _189  and  _190
REMARK   75  A    between atoms: _193  and  _195
REMARK   76  A    between atoms: _195  and  _196
REMARK   77  A    between atoms: _195  and  _198
REMARK   78  A    between atoms: _198  and  _199
REMARK   79  A    between atoms: _202  and  _204
REMARK   80  A    between atoms: _204  and  _205
REMARK   81  A    between atoms: _204  and  _207
REMARK   82  A    between atoms: _207  and  _208
REMARK   83  A    between atoms: _210  and  _212
REMARK   84  A    between atoms: _212  and  _213
REMARK   85  A    between atoms: _212  and  _215
REMARK   86  A    between atoms: _215  and  _216
REMARK   87  A    between atoms: _216  and  _217
REMARK   88  A    between atoms: _222  and  _224
REMARK   89  A    between atoms: _224  and  _225
REMARK   90  A    between atoms: _224  and  _227
REMARK   91  A    between atoms: _227  and  _228
REMARK   92  A    between atoms: _233  and  _234
REMARK   93  A    between atoms: _236  and  _238
REMARK   94  A    between atoms: _238  and  _239
REMARK   95  A    between atoms: _238  and  _241
REMARK   96  A    between atoms: _243  and  _245
REMARK   97  A    between atoms: _245  and  _246
REMARK   98  A    between atoms: _245  and  _248
REMARK   99  A    between atoms: _248  and  _249
REMARK  100  A    between atoms: _251  and  _253
REMARK  101  A    between atoms: _253  and  _254
REMARK  102  A    between atoms: _253  and  _256
REMARK  103  A    between atoms: _256  and  _257
REMARK  104  A    between atoms: _257  and  _258
REMARK  105  A    between atoms: _258  and  _259
REMARK  106  A    between atoms: _268  and  _270
REMARK  107  A    between atoms: _270  and  _271
REMARK  108  A    between atoms: _270  and  _273
REMARK  109  A    between atoms: _273  and  _274
REMARK  110  A    between atoms: _276  and  _278
REMARK  111  A    between atoms: _278  and  _279
REMARK  112  A    between atoms: _278  and  _281
REMARK  113  A    between atoms: _281  and  _282
REMARK  114  A    between atoms: _282  and  _283
REMARK  115  A    between atoms: _286  and  _288
REMARK  116  A    between atoms: _288  and  _289
REMARK  117  A    between atoms: _288  and  _291
REMARK  118  A    between atoms: _291  and  _292
REMARK  119  A    between atoms: _292  and  _293
REMARK  120  A    between atoms: _293  and  _294
REMARK  121  A    between atoms: _294  and  _295
REMARK  122  A    between atoms: _299  and  _301
REMARK  123  A    between atoms: _301  and  _302
REMARK  124  A    between atoms: _301  and  _304
REMARK  125  A    between atoms: _304  and  _305
REMARK  126  A    between atoms: _305  and  _306
REMARK  127  A    between atoms: _306  and  _307
REMARK  128  A    between atoms: _307  and  _308
REMARK  129  A    between atoms: _313  and  _314
REMARK  130  A    between atoms: _319  and  _321
REMARK  131  A    between atoms: _321  and  _322
REMARK  132  A    between atoms: _321  and  _324
REMARK  133  A    between atoms: _324  and  _325
REMARK  134  A    between atoms: _328  and  _330
REMARK  135  A    between atoms: _330  and  _331
REMARK  136  A    between atoms: _330  and  _333
REMARK  137  A    between atoms: _333  and  _334
REMARK  138  A    between atoms: _340  and  _342
REMARK  139  A    between atoms: _342  and  _343
REMARK  140  A    between atoms: _342  and  _345
REMARK  141  A    between atoms: _345  and  _346
REMARK  142  A    between atoms: _351  and  _352
REMARK  143  A    between atoms: _354  and  _356
REMARK  144  A    between atoms: _356  and  _357
REMARK  145  A    between atoms: _356  and  _359
REMARK  146  A    between atoms: _359  and  _360
REMARK  147  A    between atoms: _365  and  _367
REMARK  148  A    between atoms: _367  and  _368
REMARK  149  A    between atoms: _367  and  _370
REMARK  150  A    between atoms: _370  and  _371
REMARK  151  A    between atoms: _371  and  _372
REMARK  152  A    between atoms: _377  and  _379
REMARK  153  A    between atoms: _379  and  _380
REMARK  154  A    between atoms: _379  and  _382
REMARK  155  A    between atoms: _382  and  _383
REMARK  156  A    between atoms: _386  and  _388
REMARK  157  A    between atoms: _388  and  _389
REMARK  158  A    between atoms: _388  and  _391
REMARK  159  A    between atoms: _391  and  _392
REMARK  160  A    between atoms: _392  and  _393
REMARK  161  A    between atoms: _393  and  _394
REMARK  162  A    between atoms: _394  and  _395
REMARK  163  A    between atoms: _399  and  _401
REMARK  164  A    between atoms: _401  and  _402
REMARK  165  A    between atoms: _405  and  _407
REMARK  166  A    between atoms: _407  and  _408
REMARK  167  A    between atoms: _407  and  _410
REMARK  168  A    between atoms: _410  and  _411
REMARK  169  A    between atoms: _417  and  _419
REMARK  170  A    between atoms: _419  and  _420
REMARK  171  A    between atoms: _419  and  _422
REMARK  172  A    between atoms: _422  and  _423
REMARK  173  A    between atoms: _426  and  _428
REMARK  174  A    between atoms: _428  and  _429
REMARK  175  A    between atoms: _428  and  _431
REMARK  176  A    between atoms: _431  and  _432
REMARK  177  A    between atoms: _435  and  _437
REMARK  178  A    between atoms: _437  and  _438
REMARK  179  A    between atoms: _437  and  _440
REMARK  180  A    between atoms: _443  and  _445
REMARK  181  A    between atoms: _445  and  _446
REMARK  182  A    between atoms: _445  and  _448
REMARK  183  A    between atoms: _448  and  _449
REMARK  184  A    between atoms: _449  and  _450
REMARK  185  A    between atoms: _450  and  _451
REMARK  186  A    between atoms: _451  and  _452
REMARK  187  A    between atoms: _456  and  _458
REMARK  188  A    between atoms: _458  and  _459
REMARK  189  A    between atoms: _458  and  _461
REMARK  190  A    between atoms: _461  and  _462
REMARK  191  A    between atoms: _462  and  _463
REMARK  192  A    between atoms: _468  and  _470
REMARK  193  A    between atoms: _470  and  _471
REMARK  194  A    between atoms: _470  and  _473
REMARK  195  A    between atoms: _473  and  _474
REMARK  196  A    between atoms: _480  and  _482
REMARK  197  A    between atoms: _482  and  _483
REMARK  198  A    between atoms: _482  and  _485
REMARK  199  A    between atoms: _485  and  _486
REMARK  200  A    between atoms: _490  and  _491
REMARK  201  A    between atoms: _497  and  _498
REMARK  202  A    between atoms: _503  and  _505
REMARK  203  A    between atoms: _505  and  _506
REMARK  204  A    between atoms: _505  and  _508
REMARK  205  A    between atoms: _508  and  _509
REMARK  206  A    between atoms: _512  and  _514
REMARK  207  A    between atoms: _514  and  _515
REMARK  208  A    between atoms: _514  and  _517
REMARK  209  A    between atoms: _517  and  _518
REMARK  210  A    between atoms: _523  and  _525
REMARK  211  A    between atoms: _525  and  _526
REMARK  212  A    between atoms: _525  and  _528
REMARK  213  A    between atoms: _528  and  _529
REMARK  214  A    between atoms: _532  and  _534
REMARK  215  A    between atoms: _534  and  _535
REMARK  216  A    between atoms: _534  and  _537
REMARK  217  A    between atoms: _537  and  _538
REMARK  218  A    between atoms: _538  and  _539
REMARK  219  A    between atoms: _542  and  _544
REMARK  220  A    between atoms: _544  and  _545
REMARK  221  A    between atoms: _547  and  _549
REMARK  222  A    between atoms: _549  and  _550
REMARK  223  A    between atoms: _549  and  _552
REMARK  224  A    between atoms: _552  and  _553
REMARK  225  A    between atoms: _556  and  _558
REMARK  226  A    between atoms: _558  and  _559
REMARK  227  A    between atoms: _562  and  _564
REMARK  228  A    between atoms: _564  and  _565
REMARK  229  A    between atoms: _564  and  _567
REMARK  230  A    between atoms: _567  and  _568
REMARK  231  A    between atoms: _571  and  _572
REMARK  232  A    between atoms: _577  and  _579
REMARK  233  A    between atoms: _579  and  _580
REMARK  234  A    between atoms: _579  and  _582
REMARK  235  A    between atoms: _582  and  _583
REMARK  236  A    between atoms: _589  and  _591
REMARK  237  A    between atoms: _591  and  _592
REMARK  238  A    between atoms: _591  and  _594
REMARK  239  A    between atoms: _597  and  _599
REMARK  240  A    between atoms: _599  and  _600
REMARK  241  A    between atoms: _599  and  _602
REMARK  242  A    between atoms: _602  and  _603
REMARK  243  A    between atoms: _603  and  _604
REMARK  244  A    between atoms: _607  and  _609
REMARK  245  A    between atoms: _609  and  _610
REMARK  246  A    between atoms: _609  and  _612
REMARK  247  A    between atoms: _612  and  _613
REMARK                            x       y       z     vdW  Elec       q    Type
REMARK                         _______ _______ _______ _____ _____    ______ ____
ROOT
ATOM      1  O   HOH     1      58.359  40.432  37.035  0.00  0.00    +0.000 OA
ENDROOT
TORSDOF 0
REMARK  Name = ../refined-set-2016/1zhy/1zhy_pocket.pdb
REMARK  247 active torsions:
REMARK  status: ('A' for Active; 'I' for Inactive)
REMARK    1  A    between atoms: _1  and  _3
REMARK    2  A    between atoms: _3  and  _4
REMARK    3  A    between atoms: _3  and  _6
REMARK    4  A    between atoms: _6  and  _7
REMARK    5  A    between atoms: _17  and  _19
REMARK    6  A    between atoms: _19  and  _20
REMARK    7  A    between atoms: _19  and  _22
REMARK    8  A    between atoms: _22  and  _23
REMARK    9  A    between atoms: _29  and  _31
REMARK   10  A    between atoms: _31  and  _32
REMARK   11  A    between atoms: _31  and  _34
REMARK   12  A    between atoms: _34  and  _35
REMARK   13  A    between atoms: _38  and  _40
REMARK   14  A    between atoms: _40  and  _41
REMARK   15  A    between atoms: _40  and  _43
REMARK   16  A    between atoms: _43  and  _44
REMARK   17  A    between atoms: _47  and  _49
REMARK   18  A    between atoms: _49  and  _50
REMARK   19  A    between atoms: _49  and  _52
REMARK   20  A    between atoms: _52  and  _53
REMARK   21  A    between atoms: _55  and  _57
REMARK   22  A    between atoms: _57  and  _58
REMARK   23  A    between atoms: _57  and  _60
REMARK   24  A    between atoms: _60  and  _61
REMARK   25  A    between atoms: _64  and  _66
REMARK   26  A    between atoms: _66  and  _67
REMARK   27  A    between atoms: _71  and  _72
REMARK   28  A    between atoms: _77  and  _79
REMARK   29  A    between atoms: _79  and  _80
REMARK   30  A    between atoms: _79  and  _82
REMARK   31  A    between atoms: _82  and  _83
REMARK   32  A    between atoms: _86  and  _88
REMARK   33  A    between atoms: _88  and  _89
REMARK   34  A    between atoms: _88  and  _91
REMARK   35  A    between atoms: _91  and  _92
REMARK   36  A    between atoms: _95  and  _97
REMARK   37  A    between atoms: _97  and  _98
REMARK   38  A    between atoms: _97  and  _100
REMARK   39  A    between atoms: _100  and  _101
REMARK   40  A    between atoms: _103  and  _105
REMARK   41  A    between atoms: _105  and  _106
REMARK   42  A    between atoms: _105  and  _108
REMARK   43  A    between atoms: _108  and  _109
REMARK   44  A    between atoms: _112  and  _114
REMARK   45  A    between atoms: _114  and  _115
REMARK   46  A    between atoms: _114  and  _117
REMARK   47  A    between atoms: _117  and  _118
REMARK   48  A    between atoms: _118  and  _119
REMARK   49  A    between atoms: _122  and  _124
REMARK   50  A    between atoms: _124  and  _125
REMARK   51  A    between atoms: _124  and  _127
REMARK   52  A    between atoms: _127  and  _128
REMARK   53  A    between atoms: _134  and  _136
REMARK   54  A    between atoms: _136  and  _137
REMARK   55  A    between atoms: _136  and  _139
REMARK   56  A    between atoms: _139  and  _140
REMARK   57  A    between atoms: _142  and  _144
REMARK   58  A    between atoms: _144  and  _145
REMARK   59  A    between atoms: _144  and  _147
REMARK   60  A    between atoms: _147  and  _148
REMARK   61  A    between atoms: _148  and  _149
REMARK   62  A    between atoms: _154  and  _156
REMARK   63  A    between atoms: _156  and  _157
REMARK   64  A    between atoms: _156  and  _159
REMARK   65  A    between atoms: _159  and  _160
REMARK   66  A    between atoms: _165  and  _166
REMARK   67  A    between atoms: _168  and  _170
REMARK   68  A    between atoms: _170  and  _171
REMARK   69  A    between atoms: _170  and  _173
REMARK   70  A    between atoms: _173  and  _174
REMARK   71  A    between atoms: _184  and  _186
REMARK   72  A    between atoms: _186  and  _187
REMARK   73  A    between atoms: _186  and  _189
REMARK   74  A    between atoms: _189  and  _190
REMARK   75  A    between atoms: _193  and  _195
REMARK   76  A    between atoms: _195  and  _196
REMARK   77  A    between atoms: _195  and  _198
REMARK   78  A    between atoms: _198  and  _199
REMARK   79  A    between atoms: _202  and  _204
REMARK   80  A    between atoms: _204  and  _205
REMARK   81  A    between atoms: _204  and  _207
REMARK   82  A    between atoms: _207  and  _208
REMARK   83  A    between atoms: _210  and  _212
REMARK   84  A    between atoms: _212  and  _213
REMARK   85  A    between atoms: _212  and  _215
REMARK   86  A    between atoms: _215  and  _216
REMARK   87  A    between atoms: _216  and  _217
REMARK   88  A    between atoms: _222  and  _224
REMARK   89  A    between atoms: _224  and  _225
REMARK   90  A    between atoms: _224  and  _227
REMARK   91  A    between atoms: _227  and  _228
REMARK   92  A    between atoms: _233  and  _234
REMARK   93  A    between atoms: _236  and  _238
REMARK   94  A    between atoms: _238  and  _239
REMARK   95  A    between atoms: _238  and  _241
REMARK   96  A    between atoms: _243  and  _245
REMARK   97  A    between atoms: _245  and  _246
REMARK   98  A    between atoms: _245  and  _248
REMARK   99  A    between atoms: _248  and  _249
REMARK  100  A    between atoms: _251  and  _253
REMARK  101  A    between atoms: _253  and  _254
REMARK  102  A    between atoms: _253  and  _256
REMARK  103  A    between atoms: _256  and  _257
REMARK  104  A    between atoms: _257  and  _258
REMARK  105  A    between atoms: _258  and  _259
REMARK  106  A    between atoms: _268  and  _270
REMARK  107  A    between atoms: _270  and  _271
REMARK  108  A    between atoms: _270  and  _273
REMARK  109  A    between atoms: _273  and  _274
REMARK  110  A    between atoms: _276  and  _278
REMARK  111  A    between atoms: _278  and  _279
REMARK  112  A    between atoms: _278  and  _281
REMARK  113  A    between atoms: _281  and  _282
REMARK  114  A    between atoms: _282  and  _283
REMARK  115  A    between atoms: _286  and  _288
REMARK  116  A    between atoms: _288  and  _289
REMARK  117  A    between atoms: _288  and  _291
REMARK  118  A    between atoms: _291  and  _292
REMARK  119  A    between atoms: _292  and  _293
REMARK  120  A    between atoms: _293  and  _294
REMARK  121  A    between atoms: _294  and  _295
REMARK  122  A    between atoms: _299  and  _301
REMARK  123  A    between atoms: _301  and  _302
REMARK  124  A    between atoms: _301  and  _304
REMARK  125  A    between atoms: _304  and  _305
REMARK  126  A    between atoms: _305  and  _306
REMARK  127  A    between atoms: _306  and  _307
REMARK  128  A    between atoms: _307  and  _308
REMARK  129  A    between atoms: _313  and  _314
REMARK  130  A    between atoms: _319  and  _321
REMARK  131  A    between atoms: _321  and  _322
REMARK  132  A    between atoms: _321  and  _324
REMARK  133  A    between atoms: _324  and  _325
REMARK  134  A    between atoms: _328  and  _330
REMARK  135  A    between atoms: _330  and  _331
REMARK  136  A    between atoms: _330  and  _333
REMARK  137  A    between atoms: _333  and  _334
REMARK  138  A    between atoms: _340  and  _342
REMARK  139  A    between atoms: _342  and  _343
REMARK  140  A    between atoms: _342  and  _345
REMARK  141  A    between atoms: _345  and  _346
REMARK  142  A    between atoms: _351  and  _352
REMARK  143  A    between atoms: _354  and  _356
REMARK  144  A    between atoms: _356  and  _357
REMARK  145  A    between atoms: _356  and  _359
REMARK  146  A    between atoms: _359  and  _360
REMARK  147  A    between atoms: _365  and  _367
REMARK  148  A    between atoms: _367  and  _368
REMARK  149  A    between atoms: _367  and  _370
REMARK  150  A    between atoms: _370  and  _371
REMARK  151  A    between atoms: _371  and  _372
REMARK  152  A    between atoms: _377  and  _379
REMARK  153  A    between atoms: _379  and  _380
REMARK  154  A    between atoms: _379  and  _382
REMARK  155  A    between atoms: _382  and  _383
REMARK  156  A    between atoms: _386  and  _388
REMARK  157  A    between atoms: _388  and  _389
REMARK  158  A    between atoms: _388  and  _391
REMARK  159  A    between atoms: _391  and  _392
REMARK  160  A    between atoms: _392  and  _393
REMARK  161  A    between atoms: _393  and  _394
REMARK  162  A    between atoms: _394  and  _395
REMARK  163  A    between atoms: _399  and  _401
REMARK  164  A    between atoms: _401  and  _402
REMARK  165  A    between atoms: _405  and  _407
REMARK  166  A    between atoms: _407  and  _408
REMARK  167  A    between atoms: _407  and  _410
REMARK  168  A    between atoms: _410  and  _411
REMARK  169  A    between atoms: _417  and  _419
REMARK  170  A    between atoms: _419  and  _420
REMARK  171  A    between atoms: _419  and  _422
REMARK  172  A    between atoms: _422  and  _423
REMARK  173  A    between atoms: _426  and  _428
REMARK  174  A    between atoms: _428  and  _429
REMARK  175  A    between atoms: _428  and  _431
REMARK  176  A    between atoms: _431  and  _432
REMARK  177  A    between atoms: _435  and  _437
REMARK  178  A    between atoms: _437  and  _438
REMARK  179  A    between atoms: _437  and  _440
REMARK  180  A    between atoms: _443  and  _445
REMARK  181  A    between atoms: _445  and  _446
REMARK  182  A    between atoms: _445  and  _448
REMARK  183  A    between atoms: _448  and  _449
REMARK  184  A    between atoms: _449  and  _450
REMARK  185  A    between atoms: _450  and  _451
REMARK  186  A    between atoms: _451  and  _452
REMARK  187  A    between atoms: _456  and  _458
REMARK  188  A    between atoms: _458  and  _459
REMARK  189  A    between atoms: _458  and  _461
REMARK  190  A    between atoms: _461  and  _462
REMARK  191  A    between atoms: _462  and  _463
REMARK  192  A    between atoms: _468  and  _470
REMARK  193  A    between atoms: _470  and  _471
REMARK  194  A    between atoms: _470  and  _473
REMARK  195  A    between atoms: _473  and  _474
REMARK  196  A    between atoms: _480  and  _482
REMARK  197  A    between atoms: _482  and  _483
REMARK  198  A    between atoms: _482  and  _485
REMARK  199  A    between atoms: _485  and  _486
REMARK  200  A    between atoms: _490  and  _491
REMARK  201  A    between atoms: _497  and  _498
REMARK  202  A    between atoms: _503  and  _505
REMARK  203  A    between atoms: _505  and  _506
REMARK  204  A    between atoms: _505  and  _508
REMARK  205  A    between atoms: _508  and  _509
REMARK  206  A    between atoms: _512  and  _514
REMARK  207  A    between atoms: _514  and  _515
REMARK  208  A    between atoms: _514  and  _517
REMARK  209  A    between atoms: _517  and  _518
REMARK  210  A    between atoms: _523  and  _525
REMARK  211  A    between atoms: _525  and  _526
REMARK  212  A    between atoms: _525  and  _528
REMARK  213  A    between atoms: _528  and  _529
REMARK  214  A    between atoms: _532  and  _534
REMARK  215  A    between atoms: _534  and  _535
REMARK  216  A    between atoms: _534  and  _537
REMARK  217  A    between atoms: _537  and  _538
REMARK  218  A    between atoms: _538  and  _539
REMARK  219  A    between atoms: _542  and  _544
REMARK  220  A    between atoms: _544  and  _545
REMARK  221  A    between atoms: _547  and  _549
REMARK  222  A    between atoms: _549  and  _550
REMARK  223  A    between atoms: _549  and  _552
REMARK  224  A    between atoms: _552  and  _553
REMARK  225  A    between atoms: _556  and  _558
REMARK  226  A    between atoms: _558  and  _559
REMARK  227  A    between atoms: _562  and  _564
REMARK  228  A    between atoms: _564  and  _565
REMARK  229  A    between atoms: _564  and  _567
REMARK  230  A    between atoms: _567  and  _568
REMARK  231  A    between atoms: _571  and  _572
REMARK  232  A    between atoms: _577  and  _579
REMARK  233  A    between atoms: _579  and  _580
REMARK  234  A    between atoms: _579  and  _582
REMARK  235  A    between atoms: _582  and  _583
REMARK  236  A    between atoms: _589  and  _591
REMARK  237  A    between atoms: _591  and  _592
REMARK  238  A    between atoms: _591  and  _594
REMARK  239  A    between atoms: _597  and  _599
REMARK  240  A    between atoms: _599  and  _600
REMARK  241  A    between atoms: _599  and  _602
REMARK  242  A    between atoms: _602  and  _603
REMARK  243  A    between atoms: _603  and  _604
REMARK  244  A    between atoms: _607  and  _609
REMARK  245  A    between atoms: _609  and  _610
REMARK  246  A    between atoms: _609  and  _612
REMARK  247  A    between atoms: _612  and  _613
REMARK                            x       y       z     vdW  Elec       q    Type
REMARK                         _______ _______ _______ _____ _____    ______ ____
ROOT
ATOM      1  O   HOH     1      48.291  32.971  29.989  0.00  0.00    +0.000 OA
ENDROOT
TORSDOF 0
REMARK  Name = ../refined-set-2016/1zhy/1zhy_pocket.pdb
REMARK  247 active torsions:
REMARK  status: ('A' for Active; 'I' for Inactive)
REMARK    1  A    between atoms: _1  and  _3
REMARK    2  A    between atoms: _3  and  _4
REMARK    3  A    between atoms: _3  and  _6
REMARK    4  A    between atoms: _6  and  _7
REMARK    5  A    between atoms: _17  and  _19
REMARK    6  A    between atoms: _19  and  _20
REMARK    7  A    between atoms: _19  and  _22
REMARK    8  A    between atoms: _22  and  _23
REMARK    9  A    between atoms: _29  and  _31
REMARK   10  A    between atoms: _31  and  _32
REMARK   11  A    between atoms: _31  and  _34
REMARK   12  A    between atoms: _34  and  _35
REMARK   13  A    between atoms: _38  and  _40
REMARK   14  A    between atoms: _40  and  _41
REMARK   15  A    between atoms: _40  and  _43
REMARK   16  A    between atoms: _43  and  _44
REMARK   17  A    between atoms: _47  and  _49
REMARK   18  A    between atoms: _49  and  _50
REMARK   19  A    between atoms: _49  and  _52
REMARK   20  A    between atoms: _52  and  _53
REMARK   21  A    between atoms: _55  and  _57
REMARK   22  A    between atoms: _57  and  _58
REMARK   23  A    between atoms: _57  and  _60
REMARK   24  A    between atoms: _60  and  _61
REMARK   25  A    between atoms: _64  and  _66
REMARK   26  A    between atoms: _66  and  _67
REMARK   27  A    between atoms: _71  and  _72
REMARK   28  A    between atoms: _77  and  _79
REMARK   29  A    between atoms: _79  and  _80
REMARK   30  A    between atoms: _79  and  _82
REMARK   31  A    between atoms: _82  and  _83
REMARK   32  A    between atoms: _86  and  _88
REMARK   33  A    between atoms: _88  and  _89
REMARK   34  A    between atoms: _88  and  _91
REMARK   35  A    between atoms: _91  and  _92
REMARK   36  A    between atoms: _95  and  _97
REMARK   37  A    between atoms: _97  and  _98
REMARK   38  A    between atoms: _97  and  _100
REMARK   39  A    between atoms: _100  and  _101
REMARK   40  A    between atoms: _103  and  _105
REMARK   41  A    between atoms: _105  and  _106
REMARK   42  A    between atoms: _105  and  _108
REMARK   43  A    between atoms: _108  and  _109
REMARK   44  A    between atoms: _112  and  _114
REMARK   45  A    between atoms: _114  and  _115
REMARK   46  A    between atoms: _114  and  _117
REMARK   47  A    between atoms: _117  and  _118
REMARK   48  A    between atoms: _118  and  _119
REMARK   49  A    between atoms: _122  and  _124
REMARK   50  A    between atoms: _124  and  _125
REMARK   51  A    between atoms: _124  and  _127
REMARK   52  A    between atoms: _127  and  _128
REMARK   53  A    between atoms: _134  and  _136
REMARK   54  A    between atoms: _136  and  _137
REMARK   55  A    between atoms: _136  and  _139
REMARK   56  A    between atoms: _139  and  _140
REMARK   57  A    between atoms: _142  and  _144
REMARK   58  A    between atoms: _144  and  _145
REMARK   59  A    between atoms: _144  and  _147
REMARK   60  A    between atoms: _147  and  _148
REMARK   61  A    between atoms: _148  and  _149
REMARK   62  A    between atoms: _154  and  _156
REMARK   63  A    between atoms: _156  and  _157
REMARK   64  A    between atoms: _156  and  _159
REMARK   65  A    between atoms: _159  and  _160
REMARK   66  A    between atoms: _165  and  _166
REMARK   67  A    between atoms: _168  and  _170
REMARK   68  A    between atoms: _170  and  _171
REMARK   69  A    between atoms: _170  and  _173
REMARK   70  A    between atoms: _173  and  _174
REMARK   71  A    between atoms: _184  and  _186
REMARK   72  A    between atoms: _186  and  _187
REMARK   73  A    between atoms: _186  and  _189
REMARK   74  A    between atoms: _189  and  _190
REMARK   75  A    between atoms: _193  and  _195
REMARK   76  A    between atoms: _195  and  _196
REMARK   77  A    between atoms: _195  and  _198
REMARK   78  A    between atoms: _198  and  _199
REMARK   79  A    between atoms: _202  and  _204
REMARK   80  A    between atoms: _204  and  _205
REMARK   81  A    between atoms: _204  and  _207
REMARK   82  A    between atoms: _207  and  _208
REMARK   83  A    between atoms: _210  and  _212
REMARK   84  A    between atoms: _212  and  _213
REMARK   85  A    between atoms: _212  and  _215
REMARK   86  A    between atoms: _215  and  _216
REMARK   87  A    between atoms: _216  and  _217
REMARK   88  A    between atoms: _222  and  _224
REMARK   89  A    between atoms: _224  and  _225
REMARK   90  A    between atoms: _224  and  _227
REMARK   91  A    between atoms: _227  and  _228
REMARK   92  A    between atoms: _233  and  _234
REMARK   93  A    between atoms: _236  and  _238
REMARK   94  A    between atoms: _238  and  _239
REMARK   95  A    between atoms: _238  and  _241
REMARK   96  A    between atoms: _243  and  _245
REMARK   97  A    between atoms: _245  and  _246
REMARK   98  A    between atoms: _245  and  _248
REMARK   99  A    between atoms: _248  and  _249
REMARK  100  A    between atoms: _251  and  _253
REMARK  101  A    between atoms: _253  and  _254
REMARK  102  A    between atoms: _253  and  _256
REMARK  103  A    between atoms: _256  and  _257
REMARK  104  A    between atoms: _257  and  _258
REMARK  105  A    between atoms: _258  and  _259
REMARK  106  A    between atoms: _268  and  _270
REMARK  107  A    between atoms: _270  and  _271
REMARK  108  A    between atoms: _270  and  _273
REMARK  109  A    between atoms: _273  and  _274
REMARK  110  A    between atoms: _276  and  _278
REMARK  111  A    between atoms: _278  and  _279
REMARK  112  A    between atoms: _278  and  _281
REMARK  113  A    between atoms: _281  and  _282
REMARK  114  A    between atoms: _282  and  _283
REMARK  115  A    between atoms: _286  and  _288
REMARK  116  A    between atoms: _288  and  _289
REMARK  117  A    between atoms: _288  and  _291
REMARK  118  A    between atoms: _291  and  _292
REMARK  119  A    between atoms: _292  and  _293
REMARK  120  A    between atoms: _293  and  _294
REMARK  121  A    between atoms: _294  and  _295
REMARK  122  A    between atoms: _299  and  _301
REMARK  123  A    between atoms: _301  and  _302
REMARK  124  A    between atoms: _301  and  _304
REMARK  125  A    between atoms: _304  and  _305
REMARK  126  A    between atoms: _305  and  _306
REMARK  127  A    between atoms: _306  and  _307
REMARK  128  A    between atoms: _307  and  _308
REMARK  129  A    between atoms: _313  and  _314
REMARK  130  A    between atoms: _319  and  _321
REMARK  131  A    between atoms: _321  and  _322
REMARK  132  A    between atoms: _321  and  _324
REMARK  133  A    between atoms: _324  and  _325
REMARK  134  A    between atoms: _328  and  _330
REMARK  135  A    between atoms: _330  and  _331
REMARK  136  A    between atoms: _330  and  _333
REMARK  137  A    between atoms: _333  and  _334
REMARK  138  A    between atoms: _340  and  _342
REMARK  139  A    between atoms: _342  and  _343
REMARK  140  A    between atoms: _342  and  _345
REMARK  141  A    between atoms: _345  and  _346
REMARK  142  A    between atoms: _351  and  _352
REMARK  143  A    between atoms: _354  and  _356
REMARK  144  A    between atoms: _356  and  _357
REMARK  145  A    between atoms: _356  and  _359
REMARK  146  A    between atoms: _359  and  _360
REMARK  147  A    between atoms: _365  and  _367
REMARK  148  A    between atoms: _367  and  _368
REMARK  149  A    between atoms: _367  and  _370
REMARK  150  A    between atoms: _370  and  _371
REMARK  151  A    between atoms: _371  and  _372
REMARK  152  A    between atoms: _377  and  _379
REMARK  153  A    between atoms: _379  and  _380
REMARK  154  A    between atoms: _379  and  _382
REMARK  155  A    between atoms: _382  and  _383
REMARK  156  A    between atoms: _386  and  _388
REMARK  157  A    between atoms: _388  and  _389
REMARK  158  A    between atoms: _388  and  _391
REMARK  159  A    between atoms: _391  and  _392
REMARK  160  A    between atoms: _392  and  _393
REMARK  161  A    between atoms: _393  and  _394
REMARK  162  A    between atoms: _394  and  _395
REMARK  163  A    between atoms: _399  and  _401
REMARK  164  A    between atoms: _401  and  _402
REMARK  165  A    between atoms: _405  and  _407
REMARK  166  A    between atoms: _407  and  _408
REMARK  167  A    between atoms: _407  and  _410
REMARK  168  A    between atoms: _410  and  _411
REMARK  169  A    between atoms: _417  and  _419
REMARK  170  A    between atoms: _419  and  _420
REMARK  171  A    between atoms: _419  and  _422
REMARK  172  A    between atoms: _422  and  _423
REMARK  173  A    between atoms: _426  and  _428
REMARK  174  A    between atoms: _428  and  _429
REMARK  175  A    between atoms: _428  and  _431
REMARK  176  A    between atoms: _431  and  _432
REMARK  177  A    between atoms: _435  and  _437
REMARK  178  A    between atoms: _437  and  _438
REMARK  179  A    between atoms: _437  and  _440
REMARK  180  A    between atoms: _443  and  _445
REMARK  181  A    between atoms: _445  and  _446
REMARK  182  A    between atoms: _445  and  _448
REMARK  183  A    between atoms: _448  and  _449
REMARK  184  A    between atoms: _449  and  _450
REMARK  185  A    between atoms: _450  and  _451
REMARK  186  A    between atoms: _451  and  _452
REMARK  187  A    between atoms: _456  and  _458
REMARK  188  A    between atoms: _458  and  _459
REMARK  189  A    between atoms: _458  and  _461
REMARK  190  A    between atoms: _461  and  _462
REMARK  191  A    between atoms: _462  and  _463
REMARK  192  A    between atoms: _468  and  _470
REMARK  193  A    between atoms: _470  and  _471
REMARK  194  A    between atoms: _470  and  _473
REMARK  195  A    between atoms: _473  and  _474
REMARK  196  A    between atoms: _480  and  _482
REMARK  197  A    between atoms: _482  and  _483
REMARK  198  A    between atoms: _482  and  _485
REMARK  199  A    between atoms: _485  and  _486
REMARK  200  A    between atoms: _490  and  _491
REMARK  201  A    between atoms: _497  and  _498
REMARK  202  A    between atoms: _503  and  _505
REMARK  203  A    between atoms: _505  and  _506
REMARK  204  A    between atoms: _505  and  _508
REMARK  205  A    between atoms: _508  and  _509
REMARK  206  A    between atoms: _512  and  _514
REMARK  207  A    between atoms: _514  and  _515
REMARK  208  A    between atoms: _514  and  _517
REMARK  209  A    between atoms: _517  and  _518
REMARK  210  A    between atoms: _523  and  _525
REMARK  211  A    between atoms: _525  and  _526
REMARK  212  A    between atoms: _525  and  _528
REMARK  213  A    between atoms: _528  and  _529
REMARK  214  A    between atoms: _532  and  _534
REMARK  215  A    between atoms: _534  and  _535
REMARK  216  A    between atoms: _534  and  _537
REMARK  217  A    between atoms: _537  and  _538
REMARK  218  A    between atoms: _538  and  _539
REMARK  219  A    between atoms: _542  and  _544
REMARK  220  A    between atoms: _544  and  _545
REMARK  221  A    between atoms: _547  and  _549
REMARK  222  A    between atoms: _549  and  _550
REMARK  223  A    between atoms: _549  and  _552
REMARK  224  A    between atoms: _552  and  _553
REMARK  225  A    between atoms: _556  and  _558
REMARK  226  A    between atoms: _558  and  _559
REMARK  227  A    between atoms: _562  and  _564
REMARK  228  A    between atoms: _564  and  _565
REMARK  229  A    between atoms: _564  and  _567
REMARK  230  A    between atoms: _567  and  _568
REMARK  231  A    between atoms: _571  and  _572
REMARK  232  A    between atoms: _577  and  _579
REMARK  233  A    between atoms: _579  and  _580
REMARK  234  A    between atoms: _579  and  _582
REMARK  235  A    between atoms: _582  and  _583
REMARK  236  A    between atoms: _589  and  _591
REMARK  237  A    between atoms: _591  and  _592
REMARK  238  A    between atoms: _591  and  _594
REMARK  239  A    between atoms: _597  and  _599
REMARK  240  A    between atoms: _599  and  _600
REMARK  241  A    between atoms: _599  and  _602
REMARK  242  A    between atoms: _602  and  _603
REMARK  243  A    between atoms: _603  and  _604
REMARK  244  A    between atoms: _607  and  _609
REMARK  245  A    between atoms: _609  and  _610
REMARK  246  A    between atoms: _609  and  _612
REMARK  247  A    between atoms: _612  and  _613
REMARK                            x       y       z     vdW  Elec       q    Type
REMARK                         _______ _______ _______ _____ _____    ______ ____
ROOT
ATOM      1  O   HOH     1      60.902  38.723  33.454  0.00  0.00    +0.000 OA
ENDROOT
TORSDOF 0
REMARK  Name = ../refined-set-2016/1zhy/1zhy_pocket.pdb
REMARK  247 active torsions:
REMARK  status: ('A' for Active; 'I' for Inactive)
REMARK    1  A    between atoms: _1  and  _3
REMARK    2  A    between atoms: _3  and  _4
REMARK    3  A    between atoms: _3  and  _6
REMARK    4  A    between atoms: _6  and  _7
REMARK    5  A    between atoms: _17  and  _19
REMARK    6  A    between atoms: _19  and  _20
REMARK    7  A    between atoms: _19  and  _22
REMARK    8  A    between atoms: _22  and  _23
REMARK    9  A    between atoms: _29  and  _31
REMARK   10  A    between atoms: _31  and  _32
REMARK   11  A    between atoms: _31  and  _34
REMARK   12  A    between atoms: _34  and  _35
REMARK   13  A    between atoms: _38  and  _40
REMARK   14  A    between atoms: _40  and  _41
REMARK   15  A    between atoms: _40  and  _43
REMARK   16  A    between atoms: _43  and  _44
REMARK   17  A    between atoms: _47  and  _49
REMARK   18  A    between atoms: _49  and  _50
REMARK   19  A    between atoms: _49  and  _52
REMARK   20  A    between atoms: _52  and  _53
REMARK   21  A    between atoms: _55  and  _57
REMARK   22  A    between atoms: _57  and  _58
REMARK   23  A    between atoms: _57  and  _60
REMARK   24  A    between atoms: _60  and  _61
REMARK   25  A    between atoms: _64  and  _66
REMARK   26  A    between atoms: _66  and  _67
REMARK   27  A    between atoms: _71  and  _72
REMARK   28  A    between atoms: _77  and  _79
REMARK   29  A    between atoms: _79  and  _80
REMARK   30  A    between atoms: _79  and  _82
REMARK   31  A    between atoms: _82  and  _83
REMARK   32  A    between atoms: _86  and  _88
REMARK   33  A    between atoms: _88  and  _89
REMARK   34  A    between atoms: _88  and  _91
REMARK   35  A    between atoms: _91  and  _92
REMARK   36  A    between atoms: _95  and  _97
REMARK   37  A    between atoms: _97  and  _98
REMARK   38  A    between atoms: _97  and  _100
REMARK   39  A    between atoms: _100  and  _101
REMARK   40  A    between atoms: _103  and  _105
REMARK   41  A    between atoms: _105  and  _106
REMARK   42  A    between atoms: _105  and  _108
REMARK   43  A    between atoms: _108  and  _109
REMARK   44  A    between atoms: _112  and  _114
REMARK   45  A    between atoms: _114  and  _115
REMARK   46  A    between atoms: _114  and  _117
REMARK   47  A    between atoms: _117  and  _118
REMARK   48  A    between atoms: _118  and  _119
REMARK   49  A    between atoms: _122  and  _124
REMARK   50  A    between atoms: _124  and  _125
REMARK   51  A    between atoms: _124  and  _127
REMARK   52  A    between atoms: _127  and  _128
REMARK   53  A    between atoms: _134  and  _136
REMARK   54  A    between atoms: _136  and  _137
REMARK   55  A    between atoms: _136  and  _139
REMARK   56  A    between atoms: _139  and  _140
REMARK   57  A    between atoms: _142  and  _144
REMARK   58  A    between atoms: _144  and  _145
REMARK   59  A    between atoms: _144  and  _147
REMARK   60  A    between atoms: _147  and  _148
REMARK   61  A    between atoms: _148  and  _149
REMARK   62  A    between atoms: _154  and  _156
REMARK   63  A    between atoms: _156  and  _157
REMARK   64  A    between atoms: _156  and  _159
REMARK   65  A    between atoms: _159  and  _160
REMARK   66  A    between atoms: _165  and  _166
REMARK   67  A    between atoms: _168  and  _170
REMARK   68  A    between atoms: _170  and  _171
REMARK   69  A    between atoms: _170  and  _173
REMARK   70  A    between atoms: _173  and  _174
REMARK   71  A    between atoms: _184  and  _186
REMARK   72  A    between atoms: _186  and  _187
REMARK   73  A    between atoms: _186  and  _189
REMARK   74  A    between atoms: _189  and  _190
REMARK   75  A    between atoms: _193  and  _195
REMARK   76  A    between atoms: _195  and  _196
REMARK   77  A    between atoms: _195  and  _198
REMARK   78  A    between atoms: _198  and  _199
REMARK   79  A    between atoms: _202  and  _204
REMARK   80  A    between atoms: _204  and  _205
REMARK   81  A    between atoms: _204  and  _207
REMARK   82  A    between atoms: _207  and  _208
REMARK   83  A    between atoms: _210  and  _212
REMARK   84  A    between atoms: _212  and  _213
REMARK   85  A    between atoms: _212  and  _215
REMARK   86  A    between atoms: _215  and  _216
REMARK   87  A    between atoms: _216  and  _217
REMARK   88  A    between atoms: _222  and  _224
REMARK   89  A    between atoms: _224  and  _225
REMARK   90  A    between atoms: _224  and  _227
REMARK   91  A    between atoms: _227  and  _228
REMARK   92  A    between atoms: _233  and  _234
REMARK   93  A    between atoms: _236  and  _238
REMARK   94  A    between atoms: _238  and  _239
REMARK   95  A    between atoms: _238  and  _241
REMARK   96  A    between atoms: _243  and  _245
REMARK   97  A    between atoms: _245  and  _246
REMARK   98  A    between atoms: _245  and  _248
REMARK   99  A    between atoms: _248  and  _249
REMARK  100  A    between atoms: _251  and  _253
REMARK  101  A    between atoms: _253  and  _254
REMARK  102  A    between atoms: _253  and  _256
REMARK  103  A    between atoms: _256  and  _257
REMARK  104  A    between atoms: _257  and  _258
REMARK  105  A    between atoms: _258  and  _259
REMARK  106  A    between atoms: _268  and  _270
REMARK  107  A    between atoms: _270  and  _271
REMARK  108  A    between atoms: _270  and  _273
REMARK  109  A    between atoms: _273  and  _274
REMARK  110  A    between atoms: _276  and  _278
REMARK  111  A    between atoms: _278  and  _279
REMARK  112  A    between atoms: _278  and  _281
REMARK  113  A    between atoms: _281  and  _282
REMARK  114  A    between atoms: _282  and  _283
REMARK  115  A    between atoms: _286  and  _288
REMARK  116  A    between atoms: _288  and  _289
REMARK  117  A    between atoms: _288  and  _291
REMARK  118  A    between atoms: _291  and  _292
REMARK  119  A    between atoms: _292  and  _293
REMARK  120  A    between atoms: _293  and  _294
REMARK  121  A    between atoms: _294  and  _295
REMARK  122  A    between atoms: _299  and  _301
REMARK  123  A    between atoms: _301  and  _302
REMARK  124  A    between atoms: _301  and  _304
REMARK  125  A    between atoms: _304  and  _305
REMARK  126  A    between atoms: _305  and  _306
REMARK  127  A    between atoms: _306  and  _307
REMARK  128  A    between atoms: _307  and  _308
REMARK  129  A    between atoms: _313  and  _314
REMARK  130  A    between atoms: _319  and  _321
REMARK  131  A    between atoms: _321  and  _322
REMARK  132  A    between atoms: _321  and  _324
REMARK  133  A    between atoms: _324  and  _325
REMARK  134  A    between atoms: _328  and  _330
REMARK  135  A    between atoms: _330  and  _331
REMARK  136  A    between atoms: _330  and  _333
REMARK  137  A    between atoms: _333  and  _334
REMARK  138  A    between atoms: _340  and  _342
REMARK  139  A    between atoms: _342  and  _343
REMARK  140  A    between atoms: _342  and  _345
REMARK  141  A    between atoms: _345  and  _346
REMARK  142  A    between atoms: _351  and  _352
REMARK  143  A    between atoms: _354  and  _356
REMARK  144  A    between atoms: _356  and  _357
REMARK  145  A    between atoms: _356  and  _359
REMARK  146  A    between atoms: _359  and  _360
REMARK  147  A    between atoms: _365  and  _367
REMARK  148  A    between atoms: _367  and  _368
REMARK  149  A    between atoms: _367  and  _370
REMARK  150  A    between atoms: _370  and  _371
REMARK  151  A    between atoms: _371  and  _372
REMARK  152  A    between atoms: _377  and  _379
REMARK  153  A    between atoms: _379  and  _380
REMARK  154  A    between atoms: _379  and  _382
REMARK  155  A    between atoms: _382  and  _383
REMARK  156  A    between atoms: _386  and  _388
REMARK  157  A    between atoms: _388  and  _389
REMARK  158  A    between atoms: _388  and  _391
REMARK  159  A    between atoms: _391  and  _392
REMARK  160  A    between atoms: _392  and  _393
REMARK  161  A    between atoms: _393  and  _394
REMARK  162  A    between atoms: _394  and  _395
REMARK  163  A    between atoms: _399  and  _401
REMARK  164  A    between atoms: _401  and  _402
REMARK  165  A    between atoms: _405  and  _407
REMARK  166  A    between atoms: _407  and  _408
REMARK  167  A    between atoms: _407  and  _410
REMARK  168  A    between atoms: _410  and  _411
REMARK  169  A    between atoms: _417  and  _419
REMARK  170  A    between atoms: _419  and  _420
REMARK  171  A    between atoms: _419  and  _422
REMARK  172  A    between atoms: _422  and  _423
REMARK  173  A    between atoms: _426  and  _428
REMARK  174  A    between atoms: _428  and  _429
REMARK  175  A    between atoms: _428  and  _431
REMARK  176  A    between atoms: _431  and  _432
REMARK  177  A    between atoms: _435  and  _437
REMARK  178  A    between atoms: _437  and  _438
REMARK  179  A    between atoms: _437  and  _440
REMARK  180  A    between atoms: _443  and  _445
REMARK  181  A    between atoms: _445  and  _446
REMARK  182  A    between atoms: _445  and  _448
REMARK  183  A    between atoms: _448  and  _449
REMARK  184  A    between atoms: _449  and  _450
REMARK  185  A    between atoms: _450  and  _451
REMARK  186  A    between atoms: _451  and  _452
REMARK  187  A    between atoms: _456  and  _458
REMARK  188  A    between atoms: _458  and  _459
REMARK  189  A    between atoms: _458  and  _461
REMARK  190  A    between atoms: _461  and  _462
REMARK  191  A    between atoms: _462  and  _463
REMARK  192  A    between atoms: _468  and  _470
REMARK  193  A    between atoms: _470  and  _471
REMARK  194  A    between atoms: _470  and  _473
REMARK  195  A    between atoms: _473  and  _474
REMARK  196  A    between atoms: _480  and  _482
REMARK  197  A    between atoms: _482  and  _483
REMARK  198  A    between atoms: _482  and  _485
REMARK  199  A    between atoms: _485  and  _486
REMARK  200  A    between atoms: _490  and  _491
REMARK  201  A    between atoms: _497  and  _498
REMARK  202  A    between atoms: _503  and  _505
REMARK  203  A    between atoms: _505  and  _506
REMARK  204  A    between atoms: _505  and  _508
REMARK  205  A    between atoms: _508  and  _509
REMARK  206  A    between atoms: _512  and  _514
REMARK  207  A    between atoms: _514  and  _515
REMARK  208  A    between atoms: _514  and  _517
REMARK  209  A    between atoms: _517  and  _518
REMARK  210  A    between atoms: _523  and  _525
REMARK  211  A    between atoms: _525  and  _526
REMARK  212  A    between atoms: _525  and  _528
REMARK  213  A    between atoms: _528  and  _529
REMARK  214  A    between atoms: _532  and  _534
REMARK  215  A    between atoms: _534  and  _535
REMARK  216  A    between atoms: _534  and  _537
REMARK  217  A    between atoms: _537  and  _538
REMARK  218  A    between atoms: _538  and  _539
REMARK  219  A    between atoms: _542  and  _544
REMARK  220  A    between atoms: _544  and  _545
REMARK  221  A    between atoms: _547  and  _549
REMARK  222  A    between atoms: _549  and  _550
REMARK  223  A    between atoms: _549  and  _552
REMARK  224  A    between atoms: _552  and  _553
REMARK  225  A    between atoms: _556  and  _558
REMARK  226  A    between atoms: _558  and  _559
REMARK  227  A    between atoms: _562  and  _564
REMARK  228  A    between atoms: _564  and  _565
REMARK  229  A    between atoms: _564  and  _567
REMARK  230  A    between atoms: _567  and  _568
REMARK  231  A    between atoms: _571  and  _572
REMARK  232  A    between atoms: _577  and  _579
REMARK  233  A    between atoms: _579  and  _580
REMARK  234  A    between atoms: _579  and  _582
REMARK  235  A    between atoms: _582  and  _583
REMARK  236  A    between atoms: _589  and  _591
REMARK  237  A    between atoms: _591  and  _592
REMARK  238  A    between atoms: _591  and  _594
REMARK  239  A    between atoms: _597  and  _599
REMARK  240  A    between atoms: _599  and  _600
REMARK  241  A    between atoms: _599  and  _602
REMARK  242  A    between atoms: _602  and  _603
REMARK  243  A    between atoms: _603  and  _604
REMARK  244  A    between atoms: _607  and  _609
REMARK  245  A    between atoms: _609  and  _610
REMARK  246  A    between atoms: _609  and  _612
REMARK  247  A    between atoms: _612  and  _613
REMARK                            x       y       z     vdW  Elec       q    Type
REMARK                         _______ _______ _______ _____ _____    ______ ____
ROOT
ATOM      1  O   HOH     1      58.359  40.032  34.236  0.00  0.00    +0.000 OA
ENDROOT
TORSDOF 0
REMARK  Name = ../refined-set-2016/1zhy/1zhy_pocket.pdb
REMARK  247 active torsions:
REMARK  status: ('A' for Active; 'I' for Inactive)
REMARK    1  A    between atoms: _1  and  _3
REMARK    2  A    between atoms: _3  and  _4
REMARK    3  A    between atoms: _3  and  _6
REMARK    4  A    between atoms: _6  and  _7
REMARK    5  A    between atoms: _17  and  _19
REMARK    6  A    between atoms: _19  and  _20
REMARK    7  A    between atoms: _19  and  _22
REMARK    8  A    between atoms: _22  and  _23
REMARK    9  A    between atoms: _29  and  _31
REMARK   10  A    between atoms: _31  and  _32
REMARK   11  A    between atoms: _31  and  _34
REMARK   12  A    between atoms: _34  and  _35
REMARK   13  A    between atoms: _38  and  _40
REMARK   14  A    between atoms: _40  and  _41
REMARK   15  A    between atoms: _40  and  _43
REMARK   16  A    between atoms: _43  and  _44
REMARK   17  A    between atoms: _47  and  _49
REMARK   18  A    between atoms: _49  and  _50
REMARK   19  A    between atoms: _49  and  _52
REMARK   20  A    between atoms: _52  and  _53
REMARK   21  A    between atoms: _55  and  _57
REMARK   22  A    between atoms: _57  and  _58
REMARK   23  A    between atoms: _57  and  _60
REMARK   24  A    between atoms: _60  and  _61
REMARK   25  A    between atoms: _64  and  _66
REMARK   26  A    between atoms: _66  and  _67
REMARK   27  A    between atoms: _71  and  _72
REMARK   28  A    between atoms: _77  and  _79
REMARK   29  A    between atoms: _79  and  _80
REMARK   30  A    between atoms: _79  and  _82
REMARK   31  A    between atoms: _82  and  _83
REMARK   32  A    between atoms: _86  and  _88
REMARK   33  A    between atoms: _88  and  _89
REMARK   34  A    between atoms: _88  and  _91
REMARK   35  A    between atoms: _91  and  _92
REMARK   36  A    between atoms: _95  and  _97
REMARK   37  A    between atoms: _97  and  _98
REMARK   38  A    between atoms: _97  and  _100
REMARK   39  A    between atoms: _100  and  _101
REMARK   40  A    between atoms: _103  and  _105
REMARK   41  A    between atoms: _105  and  _106
REMARK   42  A    between atoms: _105  and  _108
REMARK   43  A    between atoms: _108  and  _109
REMARK   44  A    between atoms: _112  and  _114
REMARK   45  A    between atoms: _114  and  _115
REMARK   46  A    between atoms: _114  and  _117
REMARK   47  A    between atoms: _117  and  _118
REMARK   48  A    between atoms: _118  and  _119
REMARK   49  A    between atoms: _122  and  _124
REMARK   50  A    between atoms: _124  and  _125
REMARK   51  A    between atoms: _124  and  _127
REMARK   52  A    between atoms: _127  and  _128
REMARK   53  A    between atoms: _134  and  _136
REMARK   54  A    between atoms: _136  and  _137
REMARK   55  A    between atoms: _136  and  _139
REMARK   56  A    between atoms: _139  and  _140
REMARK   57  A    between atoms: _142  and  _144
REMARK   58  A    between atoms: _144  and  _145
REMARK   59  A    between atoms: _144  and  _147
REMARK   60  A    between atoms: _147  and  _148
REMARK   61  A    between atoms: _148  and  _149
REMARK   62  A    between atoms: _154  and  _156
REMARK   63  A    between atoms: _156  and  _157
REMARK   64  A    between atoms: _156  and  _159
REMARK   65  A    between atoms: _159  and  _160
REMARK   66  A    between atoms: _165  and  _166
REMARK   67  A    between atoms: _168  and  _170
REMARK   68  A    between atoms: _170  and  _171
REMARK   69  A    between atoms: _170  and  _173
REMARK   70  A    between atoms: _173  and  _174
REMARK   71  A    between atoms: _184  and  _186
REMARK   72  A    between atoms: _186  and  _187
REMARK   73  A    between atoms: _186  and  _189
REMARK   74  A    between atoms: _189  and  _190
REMARK   75  A    between atoms: _193  and  _195
REMARK   76  A    between atoms: _195  and  _196
REMARK   77  A    between atoms: _195  and  _198
REMARK   78  A    between atoms: _198  and  _199
REMARK   79  A    between atoms: _202  and  _204
REMARK   80  A    between atoms: _204  and  _205
REMARK   81  A    between atoms: _204  and  _207
REMARK   82  A    between atoms: _207  and  _208
REMARK   83  A    between atoms: _210  and  _212
REMARK   84  A    between atoms: _212  and  _213
REMARK   85  A    between atoms: _212  and  _215
REMARK   86  A    between atoms: _215  and  _216
REMARK   87  A    between atoms: _216  and  _217
REMARK   88  A    between atoms: _222  and  _224
REMARK   89  A    between atoms: _224  and  _225
REMARK   90  A    between atoms: _224  and  _227
REMARK   91  A    between atoms: _227  and  _228
REMARK   92  A    between atoms: _233  and  _234
REMARK   93  A    between atoms: _236  and  _238
REMARK   94  A    between atoms: _238  and  _239
REMARK   95  A    between atoms: _238  and  _241
REMARK   96  A    between atoms: _243  and  _245
REMARK   97  A    between atoms: _245  and  _246
REMARK   98  A    between atoms: _245  and  _248
REMARK   99  A    between atoms: _248  and  _249
REMARK  100  A    between atoms: _251  and  _253
REMARK  101  A    between atoms: _253  and  _254
REMARK  102  A    between atoms: _253  and  _256
REMARK  103  A    between atoms: _256  and  _257
REMARK  104  A    between atoms: _257  and  _258
REMARK  105  A    between atoms: _258  and  _259
REMARK  106  A    between atoms: _268  and  _270
REMARK  107  A    between atoms: _270  and  _271
REMARK  108  A    between atoms: _270  and  _273
REMARK  109  A    between atoms: _273  and  _274
REMARK  110  A    between atoms: _276  and  _278
REMARK  111  A    between atoms: _278  and  _279
REMARK  112  A    between atoms: _278  and  _281
REMARK  113  A    between atoms: _281  and  _282
REMARK  114  A    between atoms: _282  and  _283
REMARK  115  A    between atoms: _286  and  _288
REMARK  116  A    between atoms: _288  and  _289
REMARK  117  A    between atoms: _288  and  _291
REMARK  118  A    between atoms: _291  and  _292
REMARK  119  A    between atoms: _292  and  _293
REMARK  120  A    between atoms: _293  and  _294
REMARK  121  A    between atoms: _294  and  _295
REMARK  122  A    between atoms: _299  and  _301
REMARK  123  A    between atoms: _301  and  _302
REMARK  124  A    between atoms: _301  and  _304
REMARK  125  A    between atoms: _304  and  _305
REMARK  126  A    between atoms: _305  and  _306
REMARK  127  A    between atoms: _306  and  _307
REMARK  128  A    between atoms: _307  and  _308
REMARK  129  A    between atoms: _313  and  _314
REMARK  130  A    between atoms: _319  and  _321
REMARK  131  A    between atoms: _321  and  _322
REMARK  132  A    between atoms: _321  and  _324
REMARK  133  A    between atoms: _324  and  _325
REMARK  134  A    between atoms: _328  and  _330
REMARK  135  A    between atoms: _330  and  _331
REMARK  136  A    between atoms: _330  and  _333
REMARK  137  A    between atoms: _333  and  _334
REMARK  138  A    between atoms: _340  and  _342
REMARK  139  A    between atoms: _342  and  _343
REMARK  140  A    between atoms: _342  and  _345
REMARK  141  A    between atoms: _345  and  _346
REMARK  142  A    between atoms: _351  and  _352
REMARK  143  A    between atoms: _354  and  _356
REMARK  144  A    between atoms: _356  and  _357
REMARK  145  A    between atoms: _356  and  _359
REMARK  146  A    between atoms: _359  and  _360
REMARK  147  A    between atoms: _365  and  _367
REMARK  148  A    between atoms: _367  and  _368
REMARK  149  A    between atoms: _367  and  _370
REMARK  150  A    between atoms: _370  and  _371
REMARK  151  A    between atoms: _371  and  _372
REMARK  152  A    between atoms: _377  and  _379
REMARK  153  A    between atoms: _379  and  _380
REMARK  154  A    between atoms: _379  and  _382
REMARK  155  A    between atoms: _382  and  _383
REMARK  156  A    between atoms: _386  and  _388
REMARK  157  A    between atoms: _388  and  _389
REMARK  158  A    between atoms: _388  and  _391
REMARK  159  A    between atoms: _391  and  _392
REMARK  160  A    between atoms: _392  and  _393
REMARK  161  A    between atoms: _393  and  _394
REMARK  162  A    between atoms: _394  and  _395
REMARK  163  A    between atoms: _399  and  _401
REMARK  164  A    between atoms: _401  and  _402
REMARK  165  A    between atoms: _405  and  _407
REMARK  166  A    between atoms: _407  and  _408
REMARK  167  A    between atoms: _407  and  _410
REMARK  168  A    between atoms: _410  and  _411
REMARK  169  A    between atoms: _417  and  _419
REMARK  170  A    between atoms: _419  and  _420
REMARK  171  A    between atoms: _419  and  _422
REMARK  172  A    between atoms: _422  and  _423
REMARK  173  A    between atoms: _426  and  _428
REMARK  174  A    between atoms: _428  and  _429
REMARK  175  A    between atoms: _428  and  _431
REMARK  176  A    between atoms: _431  and  _432
REMARK  177  A    between atoms: _435  and  _437
REMARK  178  A    between atoms: _437  and  _438
REMARK  179  A    between atoms: _437  and  _440
REMARK  180  A    between atoms: _443  and  _445
REMARK  181  A    between atoms: _445  and  _446
REMARK  182  A    between atoms: _445  and  _448
REMARK  183  A    between atoms: _448  and  _449
REMARK  184  A    between atoms: _449  and  _450
REMARK  185  A    between atoms: _450  and  _451
REMARK  186  A    between atoms: _451  and  _452
REMARK  187  A    between atoms: _456  and  _458
REMARK  188  A    between atoms: _458  and  _459
REMARK  189  A    between atoms: _458  and  _461
REMARK  190  A    between atoms: _461  and  _462
REMARK  191  A    between atoms: _462  and  _463
REMARK  192  A    between atoms: _468  and  _470
REMARK  193  A    between atoms: _470  and  _471
REMARK  194  A    between atoms: _470  and  _473
REMARK  195  A    between atoms: _473  and  _474
REMARK  196  A    between atoms: _480  and  _482
REMARK  197  A    between atoms: _482  and  _483
REMARK  198  A    between atoms: _482  and  _485
REMARK  199  A    between atoms: _485  and  _486
REMARK  200  A    between atoms: _490  and  _491
REMARK  201  A    between atoms: _497  and  _498
REMARK  202  A    between atoms: _503  and  _505
REMARK  203  A    between atoms: _505  and  _506
REMARK  204  A    between atoms: _505  and  _508
REMARK  205  A    between atoms: _508  and  _509
REMARK  206  A    between atoms: _512  and  _514
REMARK  207  A    between atoms: _514  and  _515
REMARK  208  A    between atoms: _514  and  _517
REMARK  209  A    between atoms: _517  and  _518
REMARK  210  A    between atoms: _523  and  _525
REMARK  211  A    between atoms: _525  and  _526
REMARK  212  A    between atoms: _525  and  _528
REMARK  213  A    between atoms: _528  and  _529
REMARK  214  A    between atoms: _532  and  _534
REMARK  215  A    between atoms: _534  and  _535
REMARK  216  A    between atoms: _534  and  _537
REMARK  217  A    between atoms: _537  and  _538
REMARK  218  A    between atoms: _538  and  _539
REMARK  219  A    between atoms: _542  and  _544
REMARK  220  A    between atoms: _544  and  _545
REMARK  221  A    between atoms: _547  and  _549
REMARK  222  A    between atoms: _549  and  _550
REMARK  223  A    between atoms: _549  and  _552
REMARK  224  A    between atoms: _552  and  _553
REMARK  225  A    between atoms: _556  and  _558
REMARK  226  A    between atoms: _558  and  _559
REMARK  227  A    between atoms: _562  and  _564
REMARK  228  A    between atoms: _564  and  _565
REMARK  229  A    between atoms: _564  and  _567
REMARK  230  A    between atoms: _567  and  _568
REMARK  231  A    between atoms: _571  and  _572
REMARK  232  A    between atoms: _577  and  _579
REMARK  233  A    between atoms: _579  and  _580
REMARK  234  A    between atoms: _579  and  _582
REMARK  235  A    between atoms: _582  and  _583
REMARK  236  A    between atoms: _589  and  _591
REMARK  237  A    between atoms: _591  and  _592
REMARK  238  A    between atoms: _591  and  _594
REMARK  239  A    between atoms: _597  and  _599
REMARK  240  A    between atoms: _599  and  _600
REMARK  241  A    between atoms: _599  and  _602
REMARK  242  A    between atoms: _602  and  _603
REMARK  243  A    between atoms: _603  and  _604
REMARK  244  A    between atoms: _607  and  _609
REMARK  245  A    between atoms: _609  and  _610
REMARK  246  A    between atoms: _609  and  _612
REMARK  247  A    between atoms: _612  and  _613
REMARK                            x       y       z     vdW  Elec       q    Type
REMARK                         _______ _______ _______ _____ _____    ______ ____
ROOT
ATOM      1  O   HOH     1      62.224  40.953  31.851  0.00  0.00    +0.000 OA
ENDROOT
TORSDOF 0
REMARK  Name = ../refined-set-2016/1zhy/1zhy_pocket.pdb
REMARK  247 active torsions:
REMARK  status: ('A' for Active; 'I' for Inactive)
REMARK    1  A    between atoms: _1  and  _3
REMARK    2  A    between atoms: _3  and  _4
REMARK    3  A    between atoms: _3  and  _6
REMARK    4  A    between atoms: _6  and  _7
REMARK    5  A    between atoms: _17  and  _19
REMARK    6  A    between atoms: _19  and  _20
REMARK    7  A    between atoms: _19  and  _22
REMARK    8  A    between atoms: _22  and  _23
REMARK    9  A    between atoms: _29  and  _31
REMARK   10  A    between atoms: _31  and  _32
REMARK   11  A    between atoms: _31  and  _34
REMARK   12  A    between atoms: _34  and  _35
REMARK   13  A    between atoms: _38  and  _40
REMARK   14  A    between atoms: _40  and  _41
REMARK   15  A    between atoms: _40  and  _43
REMARK   16  A    between atoms: _43  and  _44
REMARK   17  A    between atoms: _47  and  _49
REMARK   18  A    between atoms: _49  and  _50
REMARK   19  A    between atoms: _49  and  _52
REMARK   20  A    between atoms: _52  and  _53
REMARK   21  A    between atoms: _55  and  _57
REMARK   22  A    between atoms: _57  and  _58
REMARK   23  A    between atoms: _57  and  _60
REMARK   24  A    between atoms: _60  and  _61
REMARK   25  A    between atoms: _64  and  _66
REMARK   26  A    between atoms: _66  and  _67
REMARK   27  A    between atoms: _71  and  _72
REMARK   28  A    between atoms: _77  and  _79
REMARK   29  A    between atoms: _79  and  _80
REMARK   30  A    between atoms: _79  and  _82
REMARK   31  A    between atoms: _82  and  _83
REMARK   32  A    between atoms: _86  and  _88
REMARK   33  A    between atoms: _88  and  _89
REMARK   34  A    between atoms: _88  and  _91
REMARK   35  A    between atoms: _91  and  _92
REMARK   36  A    between atoms: _95  and  _97
REMARK   37  A    between atoms: _97  and  _98
REMARK   38  A    between atoms: _97  and  _100
REMARK   39  A    between atoms: _100  and  _101
REMARK   40  A    between atoms: _103  and  _105
REMARK   41  A    between atoms: _105  and  _106
REMARK   42  A    between atoms: _105  and  _108
REMARK   43  A    between atoms: _108  and  _109
REMARK   44  A    between atoms: _112  and  _114
REMARK   45  A    between atoms: _114  and  _115
REMARK   46  A    between atoms: _114  and  _117
REMARK   47  A    between atoms: _117  and  _118
REMARK   48  A    between atoms: _118  and  _119
REMARK   49  A    between atoms: _122  and  _124
REMARK   50  A    between atoms: _124  and  _125
REMARK   51  A    between atoms: _124  and  _127
REMARK   52  A    between atoms: _127  and  _128
REMARK   53  A    between atoms: _134  and  _136
REMARK   54  A    between atoms: _136  and  _137
REMARK   55  A    between atoms: _136  and  _139
REMARK   56  A    between atoms: _139  and  _140
REMARK   57  A    between atoms: _142  and  _144
REMARK   58  A    between atoms: _144  and  _145
REMARK   59  A    between atoms: _144  and  _147
REMARK   60  A    between atoms: _147  and  _148
REMARK   61  A    between atoms: _148  and  _149
REMARK   62  A    between atoms: _154  and  _156
REMARK   63  A    between atoms: _156  and  _157
REMARK   64  A    between atoms: _156  and  _159
REMARK   65  A    between atoms: _159  and  _160
REMARK   66  A    between atoms: _165  and  _166
REMARK   67  A    between atoms: _168  and  _170
REMARK   68  A    between atoms: _170  and  _171
REMARK   69  A    between atoms: _170  and  _173
REMARK   70  A    between atoms: _173  and  _174
REMARK   71  A    between atoms: _184  and  _186
REMARK   72  A    between atoms: _186  and  _187
REMARK   73  A    between atoms: _186  and  _189
REMARK   74  A    between atoms: _189  and  _190
REMARK   75  A    between atoms: _193  and  _195
REMARK   76  A    between atoms: _195  and  _196
REMARK   77  A    between atoms: _195  and  _198
REMARK   78  A    between atoms: _198  and  _199
REMARK   79  A    between atoms: _202  and  _204
REMARK   80  A    between atoms: _204  and  _205
REMARK   81  A    between atoms: _204  and  _207
REMARK   82  A    between atoms: _207  and  _208
REMARK   83  A    between atoms: _210  and  _212
REMARK   84  A    between atoms: _212  and  _213
REMARK   85  A    between atoms: _212  and  _215
REMARK   86  A    between atoms: _215  and  _216
REMARK   87  A    between atoms: _216  and  _217
REMARK   88  A    between atoms: _222  and  _224
REMARK   89  A    between atoms: _224  and  _225
REMARK   90  A    between atoms: _224  and  _227
REMARK   91  A    between atoms: _227  and  _228
REMARK   92  A    between atoms: _233  and  _234
REMARK   93  A    between atoms: _236  and  _238
REMARK   94  A    between atoms: _238  and  _239
REMARK   95  A    between atoms: _238  and  _241
REMARK   96  A    between atoms: _243  and  _245
REMARK   97  A    between atoms: _245  and  _246
REMARK   98  A    between atoms: _245  and  _248
REMARK   99  A    between atoms: _248  and  _249
REMARK  100  A    between atoms: _251  and  _253
REMARK  101  A    between atoms: _253  and  _254
REMARK  102  A    between atoms: _253  and  _256
REMARK  103  A    between atoms: _256  and  _257
REMARK  104  A    between atoms: _257  and  _258
REMARK  105  A    between atoms: _258  and  _259
REMARK  106  A    between atoms: _268  and  _270
REMARK  107  A    between atoms: _270  and  _271
REMARK  108  A    between atoms: _270  and  _273
REMARK  109  A    between atoms: _273  and  _274
REMARK  110  A    between atoms: _276  and  _278
REMARK  111  A    between atoms: _278  and  _279
REMARK  112  A    between atoms: _278  and  _281
REMARK  113  A    between atoms: _281  and  _282
REMARK  114  A    between atoms: _282  and  _283
REMARK  115  A    between atoms: _286  and  _288
REMARK  116  A    between atoms: _288  and  _289
REMARK  117  A    between atoms: _288  and  _291
REMARK  118  A    between atoms: _291  and  _292
REMARK  119  A    between atoms: _292  and  _293
REMARK  120  A    between atoms: _293  and  _294
REMARK  121  A    between atoms: _294  and  _295
REMARK  122  A    between atoms: _299  and  _301
REMARK  123  A    between atoms: _301  and  _302
REMARK  124  A    between atoms: _301  and  _304
REMARK  125  A    between atoms: _304  and  _305
REMARK  126  A    between atoms: _305  and  _306
REMARK  127  A    between atoms: _306  and  _307
REMARK  128  A    between atoms: _307  and  _308
REMARK  129  A    between atoms: _313  and  _314
REMARK  130  A    between atoms: _319  and  _321
REMARK  131  A    between atoms: _321  and  _322
REMARK  132  A    between atoms: _321  and  _324
REMARK  133  A    between atoms: _324  and  _325
REMARK  134  A    between atoms: _328  and  _330
REMARK  135  A    between atoms: _330  and  _331
REMARK  136  A    between atoms: _330  and  _333
REMARK  137  A    between atoms: _333  and  _334
REMARK  138  A    between atoms: _340  and  _342
REMARK  139  A    between atoms: _342  and  _343
REMARK  140  A    between atoms: _342  and  _345
REMARK  141  A    between atoms: _345  and  _346
REMARK  142  A    between atoms: _351  and  _352
REMARK  143  A    between atoms: _354  and  _356
REMARK  144  A    between atoms: _356  and  _357
REMARK  145  A    between atoms: _356  and  _359
REMARK  146  A    between atoms: _359  and  _360
REMARK  147  A    between atoms: _365  and  _367
REMARK  148  A    between atoms: _367  and  _368
REMARK  149  A    between atoms: _367  and  _370
REMARK  150  A    between atoms: _370  and  _371
REMARK  151  A    between atoms: _371  and  _372
REMARK  152  A    between atoms: _377  and  _379
REMARK  153  A    between atoms: _379  and  _380
REMARK  154  A    between atoms: _379  and  _382
REMARK  155  A    between atoms: _382  and  _383
REMARK  156  A    between atoms: _386  and  _388
REMARK  157  A    between atoms: _388  and  _389
REMARK  158  A    between atoms: _388  and  _391
REMARK  159  A    between atoms: _391  and  _392
REMARK  160  A    between atoms: _392  and  _393
REMARK  161  A    between atoms: _393  and  _394
REMARK  162  A    between atoms: _394  and  _395
REMARK  163  A    between atoms: _399  and  _401
REMARK  164  A    between atoms: _401  and  _402
REMARK  165  A    between atoms: _405  and  _407
REMARK  166  A    between atoms: _407  and  _408
REMARK  167  A    between atoms: _407  and  _410
REMARK  168  A    between atoms: _410  and  _411
REMARK  169  A    between atoms: _417  and  _419
REMARK  170  A    between atoms: _419  and  _420
REMARK  171  A    between atoms: _419  and  _422
REMARK  172  A    between atoms: _422  and  _423
REMARK  173  A    between atoms: _426  and  _428
REMARK  174  A    between atoms: _428  and  _429
REMARK  175  A    between atoms: _428  and  _431
REMARK  176  A    between atoms: _431  and  _432
REMARK  177  A    between atoms: _435  and  _437
REMARK  178  A    between atoms: _437  and  _438
REMARK  179  A    between atoms: _437  and  _440
REMARK  180  A    between atoms: _443  and  _445
REMARK  181  A    between atoms: _445  and  _446
REMARK  182  A    between atoms: _445  and  _448
REMARK  183  A    between atoms: _448  and  _449
REMARK  184  A    between atoms: _449  and  _450
REMARK  185  A    between atoms: _450  and  _451
REMARK  186  A    between atoms: _451  and  _452
REMARK  187  A    between atoms: _456  and  _458
REMARK  188  A    between atoms: _458  and  _459
REMARK  189  A    between atoms: _458  and  _461
REMARK  190  A    between atoms: _461  and  _462
REMARK  191  A    between atoms: _462  and  _463
REMARK  192  A    between atoms: _468  and  _470
REMARK  193  A    between atoms: _470  and  _471
REMARK  194  A    between atoms: _470  and  _473
REMARK  195  A    between atoms: _473  and  _474
REMARK  196  A    between atoms: _480  and  _482
REMARK  197  A    between atoms: _482  and  _483
REMARK  198  A    between atoms: _482  and  _485
REMARK  199  A    between atoms: _485  and  _486
REMARK  200  A    between atoms: _490  and  _491
REMARK  201  A    between atoms: _497  and  _498
REMARK  202  A    between atoms: _503  and  _505
REMARK  203  A    between atoms: _505  and  _506
REMARK  204  A    between atoms: _505  and  _508
REMARK  205  A    between atoms: _508  and  _509
REMARK  206  A    between atoms: _512  and  _514
REMARK  207  A    between atoms: _514  and  _515
REMARK  208  A    between atoms: _514  and  _517
REMARK  209  A    between atoms: _517  and  _518
REMARK  210  A    between atoms: _523  and  _525
REMARK  211  A    between atoms: _525  and  _526
REMARK  212  A    between atoms: _525  and  _528
REMARK  213  A    between atoms: _528  and  _529
REMARK  214  A    between atoms: _532  and  _534
REMARK  215  A    between atoms: _534  and  _535
REMARK  216  A    between atoms: _534  and  _537
REMARK  217  A    between atoms: _537  and  _538
REMARK  218  A    between atoms: _538  and  _539
REMARK  219  A    between atoms: _542  and  _544
REMARK  220  A    between atoms: _544  and  _545
REMARK  221  A    between atoms: _547  and  _549
REMARK  222  A    between atoms: _549  and  _550
REMARK  223  A    between atoms: _549  and  _552
REMARK  224  A    between atoms: _552  and  _553
REMARK  225  A    between atoms: _556  and  _558
REMARK  226  A    between atoms: _558  and  _559
REMARK  227  A    between atoms: _562  and  _564
REMARK  228  A    between atoms: _564  and  _565
REMARK  229  A    between atoms: _564  and  _567
REMARK  230  A    between atoms: _567  and  _568
REMARK  231  A    between atoms: _571  and  _572
REMARK  232  A    between atoms: _577  and  _579
REMARK  233  A    between atoms: _579  and  _580
REMARK  234  A    between atoms: _579  and  _582
REMARK  235  A    between atoms: _582  and  _583
REMARK  236  A    between atoms: _589  and  _591
REMARK  237  A    between atoms: _591  and  _592
REMARK  238  A    between atoms: _591  and  _594
REMARK  239  A    between atoms: _597  and  _599
REMARK  240  A    between atoms: _599  and  _600
REMARK  241  A    between atoms: _599  and  _602
REMARK  242  A    between atoms: _602  and  _603
REMARK  243  A    between atoms: _603  and  _604
REMARK  244  A    between atoms: _607  and  _609
REMARK  245  A    between atoms: _609  and  _610
REMARK  246  A    between atoms: _609  and  _612
REMARK  247  A    between atoms: _612  and  _613
REMARK                            x       y       z     vdW  Elec       q    Type
REMARK                         _______ _______ _______ _____ _____    ______ ____
ROOT
ATOM      1  O   HOH     1      64.835  37.173  30.605  0.00  0.00    +0.000 OA
ENDROOT
TORSDOF 0
REMARK  Name = ../refined-set-2016/1zhy/1zhy_pocket.pdb
REMARK  247 active torsions:
REMARK  status: ('A' for Active; 'I' for Inactive)
REMARK    1  A    between atoms: _1  and  _3
REMARK    2  A    between atoms: _3  and  _4
REMARK    3  A    between atoms: _3  and  _6
REMARK    4  A    between atoms: _6  and  _7
REMARK    5  A    between atoms: _17  and  _19
REMARK    6  A    between atoms: _19  and  _20
REMARK    7  A    between atoms: _19  and  _22
REMARK    8  A    between atoms: _22  and  _23
REMARK    9  A    between atoms: _29  and  _31
REMARK   10  A    between atoms: _31  and  _32
REMARK   11  A    between atoms: _31  and  _34
REMARK   12  A    between atoms: _34  and  _35
REMARK   13  A    between atoms: _38  and  _40
REMARK   14  A    between atoms: _40  and  _41
REMARK   15  A    between atoms: _40  and  _43
REMARK   16  A    between atoms: _43  and  _44
REMARK   17  A    between atoms: _47  and  _49
REMARK   18  A    between atoms: _49  and  _50
REMARK   19  A    between atoms: _49  and  _52
REMARK   20  A    between atoms: _52  and  _53
REMARK   21  A    between atoms: _55  and  _57
REMARK   22  A    between atoms: _57  and  _58
REMARK   23  A    between atoms: _57  and  _60
REMARK   24  A    between atoms: _60  and  _61
REMARK   25  A    between atoms: _64  and  _66
REMARK   26  A    between atoms: _66  and  _67
REMARK   27  A    between atoms: _71  and  _72
REMARK   28  A    between atoms: _77  and  _79
REMARK   29  A    between atoms: _79  and  _80
REMARK   30  A    between atoms: _79  and  _82
REMARK   31  A    between atoms: _82  and  _83
REMARK   32  A    between atoms: _86  and  _88
REMARK   33  A    between atoms: _88  and  _89
REMARK   34  A    between atoms: _88  and  _91
REMARK   35  A    between atoms: _91  and  _92
REMARK   36  A    between atoms: _95  and  _97
REMARK   37  A    between atoms: _97  and  _98
REMARK   38  A    between atoms: _97  and  _100
REMARK   39  A    between atoms: _100  and  _101
REMARK   40  A    between atoms: _103  and  _105
REMARK   41  A    between atoms: _105  and  _106
REMARK   42  A    between atoms: _105  and  _108
REMARK   43  A    between atoms: _108  and  _109
REMARK   44  A    between atoms: _112  and  _114
REMARK   45  A    between atoms: _114  and  _115
REMARK   46  A    between atoms: _114  and  _117
REMARK   47  A    between atoms: _117  and  _118
REMARK   48  A    between atoms: _118  and  _119
REMARK   49  A    between atoms: _122  and  _124
REMARK   50  A    between atoms: _124  and  _125
REMARK   51  A    between atoms: _124  and  _127
REMARK   52  A    between atoms: _127  and  _128
REMARK   53  A    between atoms: _134  and  _136
REMARK   54  A    between atoms: _136  and  _137
REMARK   55  A    between atoms: _136  and  _139
REMARK   56  A    between atoms: _139  and  _140
REMARK   57  A    between atoms: _142  and  _144
REMARK   58  A    between atoms: _144  and  _145
REMARK   59  A    between atoms: _144  and  _147
REMARK   60  A    between atoms: _147  and  _148
REMARK   61  A    between atoms: _148  and  _149
REMARK   62  A    between atoms: _154  and  _156
REMARK   63  A    between atoms: _156  and  _157
REMARK   64  A    between atoms: _156  and  _159
REMARK   65  A    between atoms: _159  and  _160
REMARK   66  A    between atoms: _165  and  _166
REMARK   67  A    between atoms: _168  and  _170
REMARK   68  A    between atoms: _170  and  _171
REMARK   69  A    between atoms: _170  and  _173
REMARK   70  A    between atoms: _173  and  _174
REMARK   71  A    between atoms: _184  and  _186
REMARK   72  A    between atoms: _186  and  _187
REMARK   73  A    between atoms: _186  and  _189
REMARK   74  A    between atoms: _189  and  _190
REMARK   75  A    between atoms: _193  and  _195
REMARK   76  A    between atoms: _195  and  _196
REMARK   77  A    between atoms: _195  and  _198
REMARK   78  A    between atoms: _198  and  _199
REMARK   79  A    between atoms: _202  and  _204
REMARK   80  A    between atoms: _204  and  _205
REMARK   81  A    between atoms: _204  and  _207
REMARK   82  A    between atoms: _207  and  _208
REMARK   83  A    between atoms: _210  and  _212
REMARK   84  A    between atoms: _212  and  _213
REMARK   85  A    between atoms: _212  and  _215
REMARK   86  A    between atoms: _215  and  _216
REMARK   87  A    between atoms: _216  and  _217
REMARK   88  A    between atoms: _222  and  _224
REMARK   89  A    between atoms: _224  and  _225
REMARK   90  A    between atoms: _224  and  _227
REMARK   91  A    between atoms: _227  and  _228
REMARK   92  A    between atoms: _233  and  _234
REMARK   93  A    between atoms: _236  and  _238
REMARK   94  A    between atoms: _238  and  _239
REMARK   95  A    between atoms: _238  and  _241
REMARK   96  A    between atoms: _243  and  _245
REMARK   97  A    between atoms: _245  and  _246
REMARK   98  A    between atoms: _245  and  _248
REMARK   99  A    between atoms: _248  and  _249
REMARK  100  A    between atoms: _251  and  _253
REMARK  101  A    between atoms: _253  and  _254
REMARK  102  A    between atoms: _253  and  _256
REMARK  103  A    between atoms: _256  and  _257
REMARK  104  A    between atoms: _257  and  _258
REMARK  105  A    between atoms: _258  and  _259
REMARK  106  A    between atoms: _268  and  _270
REMARK  107  A    between atoms: _270  and  _271
REMARK  108  A    between atoms: _270  and  _273
REMARK  109  A    between atoms: _273  and  _274
REMARK  110  A    between atoms: _276  and  _278
REMARK  111  A    between atoms: _278  and  _279
REMARK  112  A    between atoms: _278  and  _281
REMARK  113  A    between atoms: _281  and  _282
REMARK  114  A    between atoms: _282  and  _283
REMARK  115  A    between atoms: _286  and  _288
REMARK  116  A    between atoms: _288  and  _289
REMARK  117  A    between atoms: _288  and  _291
REMARK  118  A    between atoms: _291  and  _292
REMARK  119  A    between atoms: _292  and  _293
REMARK  120  A    between atoms: _293  and  _294
REMARK  121  A    between atoms: _294  and  _295
REMARK  122  A    between atoms: _299  and  _301
REMARK  123  A    between atoms: _301  and  _302
REMARK  124  A    between atoms: _301  and  _304
REMARK  125  A    between atoms: _304  and  _305
REMARK  126  A    between atoms: _305  and  _306
REMARK  127  A    between atoms: _306  and  _307
REMARK  128  A    between atoms: _307  and  _308
REMARK  129  A    between atoms: _313  and  _314
REMARK  130  A    between atoms: _319  and  _321
REMARK  131  A    between atoms: _321  and  _322
REMARK  132  A    between atoms: _321  and  _324
REMARK  133  A    between atoms: _324  and  _325
REMARK  134  A    between atoms: _328  and  _330
REMARK  135  A    between atoms: _330  and  _331
REMARK  136  A    between atoms: _330  and  _333
REMARK  137  A    between atoms: _333  and  _334
REMARK  138  A    between atoms: _340  and  _342
REMARK  139  A    between atoms: _342  and  _343
REMARK  140  A    between atoms: _342  and  _345
REMARK  141  A    between atoms: _345  and  _346
REMARK  142  A    between atoms: _351  and  _352
REMARK  143  A    between atoms: _354  and  _356
REMARK  144  A    between atoms: _356  and  _357
REMARK  145  A    between atoms: _356  and  _359
REMARK  146  A    between atoms: _359  and  _360
REMARK  147  A    between atoms: _365  and  _367
REMARK  148  A    between atoms: _367  and  _368
REMARK  149  A    between atoms: _367  and  _370
REMARK  150  A    between atoms: _370  and  _371
REMARK  151  A    between atoms: _371  and  _372
REMARK  152  A    between atoms: _377  and  _379
REMARK  153  A    between atoms: _379  and  _380
REMARK  154  A    between atoms: _379  and  _382
REMARK  155  A    between atoms: _382  and  _383
REMARK  156  A    between atoms: _386  and  _388
REMARK  157  A    between atoms: _388  and  _389
REMARK  158  A    between atoms: _388  and  _391
REMARK  159  A    between atoms: _391  and  _392
REMARK  160  A    between atoms: _392  and  _393
REMARK  161  A    between atoms: _393  and  _394
REMARK  162  A    between atoms: _394  and  _395
REMARK  163  A    between atoms: _399  and  _401
REMARK  164  A    between atoms: _401  and  _402
REMARK  165  A    between atoms: _405  and  _407
REMARK  166  A    between atoms: _407  and  _408
REMARK  167  A    between atoms: _407  and  _410
REMARK  168  A    between atoms: _410  and  _411
REMARK  169  A    between atoms: _417  and  _419
REMARK  170  A    between atoms: _419  and  _420
REMARK  171  A    between atoms: _419  and  _422
REMARK  172  A    between atoms: _422  and  _423
REMARK  173  A    between atoms: _426  and  _428
REMARK  174  A    between atoms: _428  and  _429
REMARK  175  A    between atoms: _428  and  _431
REMARK  176  A    between atoms: _431  and  _432
REMARK  177  A    between atoms: _435  and  _437
REMARK  178  A    between atoms: _437  and  _438
REMARK  179  A    between atoms: _437  and  _440
REMARK  180  A    between atoms: _443  and  _445
REMARK  181  A    between atoms: _445  and  _446
REMARK  182  A    between atoms: _445  and  _448
REMARK  183  A    between atoms: _448  and  _449
REMARK  184  A    between atoms: _449  and  _450
REMARK  185  A    between atoms: _450  and  _451
REMARK  186  A    between atoms: _451  and  _452
REMARK  187  A    between atoms: _456  and  _458
REMARK  188  A    between atoms: _458  and  _459
REMARK  189  A    between atoms: _458  and  _461
REMARK  190  A    between atoms: _461  and  _462
REMARK  191  A    between atoms: _462  and  _463
REMARK  192  A    between atoms: _468  and  _470
REMARK  193  A    between atoms: _470  and  _471
REMARK  194  A    between atoms: _470  and  _473
REMARK  195  A    between atoms: _473  and  _474
REMARK  196  A    between atoms: _480  and  _482
REMARK  197  A    between atoms: _482  and  _483
REMARK  198  A    between atoms: _482  and  _485
REMARK  199  A    between atoms: _485  and  _486
REMARK  200  A    between atoms: _490  and  _491
REMARK  201  A    between atoms: _497  and  _498
REMARK  202  A    between atoms: _503  and  _505
REMARK  203  A    between atoms: _505  and  _506
REMARK  204  A    between atoms: _505  and  _508
REMARK  205  A    between atoms: _508  and  _509
REMARK  206  A    between atoms: _512  and  _514
REMARK  207  A    between atoms: _514  and  _515
REMARK  208  A    between atoms: _514  and  _517
REMARK  209  A    between atoms: _517  and  _518
REMARK  210  A    between atoms: _523  and  _525
REMARK  211  A    between atoms: _525  and  _526
REMARK  212  A    between atoms: _525  and  _528
REMARK  213  A    between atoms: _528  and  _529
REMARK  214  A    between atoms: _532  and  _534
REMARK  215  A    between atoms: _534  and  _535
REMARK  216  A    between atoms: _534  and  _537
REMARK  217  A    between atoms: _537  and  _538
REMARK  218  A    between atoms: _538  and  _539
REMARK  219  A    between atoms: _542  and  _544
REMARK  220  A    between atoms: _544  and  _545
REMARK  221  A    between atoms: _547  and  _549
REMARK  222  A    between atoms: _549  and  _550
REMARK  223  A    between atoms: _549  and  _552
REMARK  224  A    between atoms: _552  and  _553
REMARK  225  A    between atoms: _556  and  _558
REMARK  226  A    between atoms: _558  and  _559
REMARK  227  A    between atoms: _562  and  _564
REMARK  228  A    between atoms: _564  and  _565
REMARK  229  A    between atoms: _564  and  _567
REMARK  230  A    between atoms: _567  and  _568
REMARK  231  A    between atoms: _571  and  _572
REMARK  232  A    between atoms: _577  and  _579
REMARK  233  A    between atoms: _579  and  _580
REMARK  234  A    between atoms: _579  and  _582
REMARK  235  A    between atoms: _582  and  _583
REMARK  236  A    between atoms: _589  and  _591
REMARK  237  A    between atoms: _591  and  _592
REMARK  238  A    between atoms: _591  and  _594
REMARK  239  A    between atoms: _597  and  _599
REMARK  240  A    between atoms: _599  and  _600
REMARK  241  A    between atoms: _599  and  _602
REMARK  242  A    between atoms: _602  and  _603
REMARK  243  A    between atoms: _603  and  _604
REMARK  244  A    between atoms: _607  and  _609
REMARK  245  A    between atoms: _609  and  _610
REMARK  246  A    between atoms: _609  and  _612
REMARK  247  A    between atoms: _612  and  _613
REMARK                            x       y       z     vdW  Elec       q    Type
REMARK                         _______ _______ _______ _____ _____    ______ ____
ROOT
ATOM      1  O   HOH     1      61.372  39.344  26.250  0.00  0.00    +0.000 OA
ENDROOT
TORSDOF 0
REMARK  Name = ../refined-set-2016/1zhy/1zhy_pocket.pdb
REMARK  247 active torsions:
REMARK  status: ('A' for Active; 'I' for Inactive)
REMARK    1  A    between atoms: _1  and  _3
REMARK    2  A    between atoms: _3  and  _4
REMARK    3  A    between atoms: _3  and  _6
REMARK    4  A    between atoms: _6  and  _7
REMARK    5  A    between atoms: _17  and  _19
REMARK    6  A    between atoms: _19  and  _20
REMARK    7  A    between atoms: _19  and  _22
REMARK    8  A    between atoms: _22  and  _23
REMARK    9  A    between atoms: _29  and  _31
REMARK   10  A    between atoms: _31  and  _32
REMARK   11  A    between atoms: _31  and  _34
REMARK   12  A    between atoms: _34  and  _35
REMARK   13  A    between atoms: _38  and  _40
REMARK   14  A    between atoms: _40  and  _41
REMARK   15  A    between atoms: _40  and  _43
REMARK   16  A    between atoms: _43  and  _44
REMARK   17  A    between atoms: _47  and  _49
REMARK   18  A    between atoms: _49  and  _50
REMARK   19  A    between atoms: _49  and  _52
REMARK   20  A    between atoms: _52  and  _53
REMARK   21  A    between atoms: _55  and  _57
REMARK   22  A    between atoms: _57  and  _58
REMARK   23  A    between atoms: _57  and  _60
REMARK   24  A    between atoms: _60  and  _61
REMARK   25  A    between atoms: _64  and  _66
REMARK   26  A    between atoms: _66  and  _67
REMARK   27  A    between atoms: _71  and  _72
REMARK   28  A    between atoms: _77  and  _79
REMARK   29  A    between atoms: _79  and  _80
REMARK   30  A    between atoms: _79  and  _82
REMARK   31  A    between atoms: _82  and  _83
REMARK   32  A    between atoms: _86  and  _88
REMARK   33  A    between atoms: _88  and  _89
REMARK   34  A    between atoms: _88  and  _91
REMARK   35  A    between atoms: _91  and  _92
REMARK   36  A    between atoms: _95  and  _97
REMARK   37  A    between atoms: _97  and  _98
REMARK   38  A    between atoms: _97  and  _100
REMARK   39  A    between atoms: _100  and  _101
REMARK   40  A    between atoms: _103  and  _105
REMARK   41  A    between atoms: _105  and  _106
REMARK   42  A    between atoms: _105  and  _108
REMARK   43  A    between atoms: _108  and  _109
REMARK   44  A    between atoms: _112  and  _114
REMARK   45  A    between atoms: _114  and  _115
REMARK   46  A    between atoms: _114  and  _117
REMARK   47  A    between atoms: _117  and  _118
REMARK   48  A    between atoms: _118  and  _119
REMARK   49  A    between atoms: _122  and  _124
REMARK   50  A    between atoms: _124  and  _125
REMARK   51  A    between atoms: _124  and  _127
REMARK   52  A    between atoms: _127  and  _128
REMARK   53  A    between atoms: _134  and  _136
REMARK   54  A    between atoms: _136  and  _137
REMARK   55  A    between atoms: _136  and  _139
REMARK   56  A    between atoms: _139  and  _140
REMARK   57  A    between atoms: _142  and  _144
REMARK   58  A    between atoms: _144  and  _145
REMARK   59  A    between atoms: _144  and  _147
REMARK   60  A    between atoms: _147  and  _148
REMARK   61  A    between atoms: _148  and  _149
REMARK   62  A    between atoms: _154  and  _156
REMARK   63  A    between atoms: _156  and  _157
REMARK   64  A    between atoms: _156  and  _159
REMARK   65  A    between atoms: _159  and  _160
REMARK   66  A    between atoms: _165  and  _166
REMARK   67  A    between atoms: _168  and  _170
REMARK   68  A    between atoms: _170  and  _171
REMARK   69  A    between atoms: _170  and  _173
REMARK   70  A    between atoms: _173  and  _174
REMARK   71  A    between atoms: _184  and  _186
REMARK   72  A    between atoms: _186  and  _187
REMARK   73  A    between atoms: _186  and  _189
REMARK   74  A    between atoms: _189  and  _190
REMARK   75  A    between atoms: _193  and  _195
REMARK   76  A    between atoms: _195  and  _196
REMARK   77  A    between atoms: _195  and  _198
REMARK   78  A    between atoms: _198  and  _199
REMARK   79  A    between atoms: _202  and  _204
REMARK   80  A    between atoms: _204  and  _205
REMARK   81  A    between atoms: _204  and  _207
REMARK   82  A    between atoms: _207  and  _208
REMARK   83  A    between atoms: _210  and  _212
REMARK   84  A    between atoms: _212  and  _213
REMARK   85  A    between atoms: _212  and  _215
REMARK   86  A    between atoms: _215  and  _216
REMARK   87  A    between atoms: _216  and  _217
REMARK   88  A    between atoms: _222  and  _224
REMARK   89  A    between atoms: _224  and  _225
REMARK   90  A    between atoms: _224  and  _227
REMARK   91  A    between atoms: _227  and  _228
REMARK   92  A    between atoms: _233  and  _234
REMARK   93  A    between atoms: _236  and  _238
REMARK   94  A    between atoms: _238  and  _239
REMARK   95  A    between atoms: _238  and  _241
REMARK   96  A    between atoms: _243  and  _245
REMARK   97  A    between atoms: _245  and  _246
REMARK   98  A    between atoms: _245  and  _248
REMARK   99  A    between atoms: _248  and  _249
REMARK  100  A    between atoms: _251  and  _253
REMARK  101  A    between atoms: _253  and  _254
REMARK  102  A    between atoms: _253  and  _256
REMARK  103  A    between atoms: _256  and  _257
REMARK  104  A    between atoms: _257  and  _258
REMARK  105  A    between atoms: _258  and  _259
REMARK  106  A    between atoms: _268  and  _270
REMARK  107  A    between atoms: _270  and  _271
REMARK  108  A    between atoms: _270  and  _273
REMARK  109  A    between atoms: _273  and  _274
REMARK  110  A    between atoms: _276  and  _278
REMARK  111  A    between atoms: _278  and  _279
REMARK  112  A    between atoms: _278  and  _281
REMARK  113  A    between atoms: _281  and  _282
REMARK  114  A    between atoms: _282  and  _283
REMARK  115  A    between atoms: _286  and  _288
REMARK  116  A    between atoms: _288  and  _289
REMARK  117  A    between atoms: _288  and  _291
REMARK  118  A    between atoms: _291  and  _292
REMARK  119  A    between atoms: _292  and  _293
REMARK  120  A    between atoms: _293  and  _294
REMARK  121  A    between atoms: _294  and  _295
REMARK  122  A    between atoms: _299  and  _301
REMARK  123  A    between atoms: _301  and  _302
REMARK  124  A    between atoms: _301  and  _304
REMARK  125  A    between atoms: _304  and  _305
REMARK  126  A    between atoms: _305  and  _306
REMARK  127  A    between atoms: _306  and  _307
REMARK  128  A    between atoms: _307  and  _308
REMARK  129  A    between atoms: _313  and  _314
REMARK  130  A    between atoms: _319  and  _321
REMARK  131  A    between atoms: _321  and  _322
REMARK  132  A    between atoms: _321  and  _324
REMARK  133  A    between atoms: _324  and  _325
REMARK  134  A    between atoms: _328  and  _330
REMARK  135  A    between atoms: _330  and  _331
REMARK  136  A    between atoms: _330  and  _333
REMARK  137  A    between atoms: _333  and  _334
REMARK  138  A    between atoms: _340  and  _342
REMARK  139  A    between atoms: _342  and  _343
REMARK  140  A    between atoms: _342  and  _345
REMARK  141  A    between atoms: _345  and  _346
REMARK  142  A    between atoms: _351  and  _352
REMARK  143  A    between atoms: _354  and  _356
REMARK  144  A    between atoms: _356  and  _357
REMARK  145  A    between atoms: _356  and  _359
REMARK  146  A    between atoms: _359  and  _360
REMARK  147  A    between atoms: _365  and  _367
REMARK  148  A    between atoms: _367  and  _368
REMARK  149  A    between atoms: _367  and  _370
REMARK  150  A    between atoms: _370  and  _371
REMARK  151  A    between atoms: _371  and  _372
REMARK  152  A    between atoms: _377  and  _379
REMARK  153  A    between atoms: _379  and  _380
REMARK  154  A    between atoms: _379  and  _382
REMARK  155  A    between atoms: _382  and  _383
REMARK  156  A    between atoms: _386  and  _388
REMARK  157  A    between atoms: _388  and  _389
REMARK  158  A    between atoms: _388  and  _391
REMARK  159  A    between atoms: _391  and  _392
REMARK  160  A    between atoms: _392  and  _393
REMARK  161  A    between atoms: _393  and  _394
REMARK  162  A    between atoms: _394  and  _395
REMARK  163  A    between atoms: _399  and  _401
REMARK  164  A    between atoms: _401  and  _402
REMARK  165  A    between atoms: _405  and  _407
REMARK  166  A    between atoms: _407  and  _408
REMARK  167  A    between atoms: _407  and  _410
REMARK  168  A    between atoms: _410  and  _411
REMARK  169  A    between atoms: _417  and  _419
REMARK  170  A    between atoms: _419  and  _420
REMARK  171  A    between atoms: _419  and  _422
REMARK  172  A    between atoms: _422  and  _423
REMARK  173  A    between atoms: _426  and  _428
REMARK  174  A    between atoms: _428  and  _429
REMARK  175  A    between atoms: _428  and  _431
REMARK  176  A    between atoms: _431  and  _432
REMARK  177  A    between atoms: _435  and  _437
REMARK  178  A    between atoms: _437  and  _438
REMARK  179  A    between atoms: _437  and  _440
REMARK  180  A    between atoms: _443  and  _445
REMARK  181  A    between atoms: _445  and  _446
REMARK  182  A    between atoms: _445  and  _448
REMARK  183  A    between atoms: _448  and  _449
REMARK  184  A    between atoms: _449  and  _450
REMARK  185  A    between atoms: _450  and  _451
REMARK  186  A    between atoms: _451  and  _452
REMARK  187  A    between atoms: _456  and  _458
REMARK  188  A    between atoms: _458  and  _459
REMARK  189  A    between atoms: _458  and  _461
REMARK  190  A    between atoms: _461  and  _462
REMARK  191  A    between atoms: _462  and  _463
REMARK  192  A    between atoms: _468  and  _470
REMARK  193  A    between atoms: _470  and  _471
REMARK  194  A    between atoms: _470  and  _473
REMARK  195  A    between atoms: _473  and  _474
REMARK  196  A    between atoms: _480  and  _482
REMARK  197  A    between atoms: _482  and  _483
REMARK  198  A    between atoms: _482  and  _485
REMARK  199  A    between atoms: _485  and  _486
REMARK  200  A    between atoms: _490  and  _491
REMARK  201  A    between atoms: _497  and  _498
REMARK  202  A    between atoms: _503  and  _505
REMARK  203  A    between atoms: _505  and  _506
REMARK  204  A    between atoms: _505  and  _508
REMARK  205  A    between atoms: _508  and  _509
REMARK  206  A    between atoms: _512  and  _514
REMARK  207  A    between atoms: _514  and  _515
REMARK  208  A    between atoms: _514  and  _517
REMARK  209  A    between atoms: _517  and  _518
REMARK  210  A    between atoms: _523  and  _525
REMARK  211  A    between atoms: _525  and  _526
REMARK  212  A    between atoms: _525  and  _528
REMARK  213  A    between atoms: _528  and  _529
REMARK  214  A    between atoms: _532  and  _534
REMARK  215  A    between atoms: _534  and  _535
REMARK  216  A    between atoms: _534  and  _537
REMARK  217  A    between atoms: _537  and  _538
REMARK  218  A    between atoms: _538  and  _539
REMARK  219  A    between atoms: _542  and  _544
REMARK  220  A    between atoms: _544  and  _545
REMARK  221  A    between atoms: _547  and  _549
REMARK  222  A    between atoms: _549  and  _550
REMARK  223  A    between atoms: _549  and  _552
REMARK  224  A    between atoms: _552  and  _553
REMARK  225  A    between atoms: _556  and  _558
REMARK  226  A    between atoms: _558  and  _559
REMARK  227  A    between atoms: _562  and  _564
REMARK  228  A    between atoms: _564  and  _565
REMARK  229  A    between atoms: _564  and  _567
REMARK  230  A    between atoms: _567  and  _568
REMARK  231  A    between atoms: _571  and  _572
REMARK  232  A    between atoms: _577  and  _579
REMARK  233  A    between atoms: _579  and  _580
REMARK  234  A    between atoms: _579  and  _582
REMARK  235  A    between atoms: _582  and  _583
REMARK  236  A    between atoms: _589  and  _591
REMARK  237  A    between atoms: _591  and  _592
REMARK  238  A    between atoms: _591  and  _594
REMARK  239  A    between atoms: _597  and  _599
REMARK  240  A    between atoms: _599  and  _600
REMARK  241  A    between atoms: _599  and  _602
REMARK  242  A    between atoms: _602  and  _603
REMARK  243  A    between atoms: _603  and  _604
REMARK  244  A    between atoms: _607  and  _609
REMARK  245  A    between atoms: _609  and  _610
REMARK  246  A    between atoms: _609  and  _612
REMARK  247  A    between atoms: _612  and  _613
REMARK                            x       y       z     vdW  Elec       q    Type
REMARK                         _______ _______ _______ _____ _____    ______ ____
ROOT
ATOM      1  O   HOH     1      51.532  39.546  27.586  0.00  0.00    +0.000 OA
ENDROOT
TORSDOF 0
REMARK  Name = ../refined-set-2016/1zhy/1zhy_pocket.pdb
REMARK  247 active torsions:
REMARK  status: ('A' for Active; 'I' for Inactive)
REMARK    1  A    between atoms: _1  and  _3
REMARK    2  A    between atoms: _3  and  _4
REMARK    3  A    between atoms: _3  and  _6
REMARK    4  A    between atoms: _6  and  _7
REMARK    5  A    between atoms: _17  and  _19
REMARK    6  A    between atoms: _19  and  _20
REMARK    7  A    between atoms: _19  and  _22
REMARK    8  A    between atoms: _22  and  _23
REMARK    9  A    between atoms: _29  and  _31
REMARK   10  A    between atoms: _31  and  _32
REMARK   11  A    between atoms: _31  and  _34
REMARK   12  A    between atoms: _34  and  _35
REMARK   13  A    between atoms: _38  and  _40
REMARK   14  A    between atoms: _40  and  _41
REMARK   15  A    between atoms: _40  and  _43
REMARK   16  A    between atoms: _43  and  _44
REMARK   17  A    between atoms: _47  and  _49
REMARK   18  A    between atoms: _49  and  _50
REMARK   19  A    between atoms: _49  and  _52
REMARK   20  A    between atoms: _52  and  _53
REMARK   21  A    between atoms: _55  and  _57
REMARK   22  A    between atoms: _57  and  _58
REMARK   23  A    between atoms: _57  and  _60
REMARK   24  A    between atoms: _60  and  _61
REMARK   25  A    between atoms: _64  and  _66
REMARK   26  A    between atoms: _66  and  _67
REMARK   27  A    between atoms: _71  and  _72
REMARK   28  A    between atoms: _77  and  _79
REMARK   29  A    between atoms: _79  and  _80
REMARK   30  A    between atoms: _79  and  _82
REMARK   31  A    between atoms: _82  and  _83
REMARK   32  A    between atoms: _86  and  _88
REMARK   33  A    between atoms: _88  and  _89
REMARK   34  A    between atoms: _88  and  _91
REMARK   35  A    between atoms: _91  and  _92
REMARK   36  A    between atoms: _95  and  _97
REMARK   37  A    between atoms: _97  and  _98
REMARK   38  A    between atoms: _97  and  _100
REMARK   39  A    between atoms: _100  and  _101
REMARK   40  A    between atoms: _103  and  _105
REMARK   41  A    between atoms: _105  and  _106
REMARK   42  A    between atoms: _105  and  _108
REMARK   43  A    between atoms: _108  and  _109
REMARK   44  A    between atoms: _112  and  _114
REMARK   45  A    between atoms: _114  and  _115
REMARK   46  A    between atoms: _114  and  _117
REMARK   47  A    between atoms: _117  and  _118
REMARK   48  A    between atoms: _118  and  _119
REMARK   49  A    between atoms: _122  and  _124
REMARK   50  A    between atoms: _124  and  _125
REMARK   51  A    between atoms: _124  and  _127
REMARK   52  A    between atoms: _127  and  _128
REMARK   53  A    between atoms: _134  and  _136
REMARK   54  A    between atoms: _136  and  _137
REMARK   55  A    between atoms: _136  and  _139
REMARK   56  A    between atoms: _139  and  _140
REMARK   57  A    between atoms: _142  and  _144
REMARK   58  A    between atoms: _144  and  _145
REMARK   59  A    between atoms: _144  and  _147
REMARK   60  A    between atoms: _147  and  _148
REMARK   61  A    between atoms: _148  and  _149
REMARK   62  A    between atoms: _154  and  _156
REMARK   63  A    between atoms: _156  and  _157
REMARK   64  A    between atoms: _156  and  _159
REMARK   65  A    between atoms: _159  and  _160
REMARK   66  A    between atoms: _165  and  _166
REMARK   67  A    between atoms: _168  and  _170
REMARK   68  A    between atoms: _170  and  _171
REMARK   69  A    between atoms: _170  and  _173
REMARK   70  A    between atoms: _173  and  _174
REMARK   71  A    between atoms: _184  and  _186
REMARK   72  A    between atoms: _186  and  _187
REMARK   73  A    between atoms: _186  and  _189
REMARK   74  A    between atoms: _189  and  _190
REMARK   75  A    between atoms: _193  and  _195
REMARK   76  A    between atoms: _195  and  _196
REMARK   77  A    between atoms: _195  and  _198
REMARK   78  A    between atoms: _198  and  _199
REMARK   79  A    between atoms: _202  and  _204
REMARK   80  A    between atoms: _204  and  _205
REMARK   81  A    between atoms: _204  and  _207
REMARK   82  A    between atoms: _207  and  _208
REMARK   83  A    between atoms: _210  and  _212
REMARK   84  A    between atoms: _212  and  _213
REMARK   85  A    between atoms: _212  and  _215
REMARK   86  A    between atoms: _215  and  _216
REMARK   87  A    between atoms: _216  and  _217
REMARK   88  A    between atoms: _222  and  _224
REMARK   89  A    between atoms: _224  and  _225
REMARK   90  A    between atoms: _224  and  _227
REMARK   91  A    between atoms: _227  and  _228
REMARK   92  A    between atoms: _233  and  _234
REMARK   93  A    between atoms: _236  and  _238
REMARK   94  A    between atoms: _238  and  _239
REMARK   95  A    between atoms: _238  and  _241
REMARK   96  A    between atoms: _243  and  _245
REMARK   97  A    between atoms: _245  and  _246
REMARK   98  A    between atoms: _245  and  _248
REMARK   99  A    between atoms: _248  and  _249
REMARK  100  A    between atoms: _251  and  _253
REMARK  101  A    between atoms: _253  and  _254
REMARK  102  A    between atoms: _253  and  _256
REMARK  103  A    between atoms: _256  and  _257
REMARK  104  A    between atoms: _257  and  _258
REMARK  105  A    between atoms: _258  and  _259
REMARK  106  A    between atoms: _268  and  _270
REMARK  107  A    between atoms: _270  and  _271
REMARK  108  A    between atoms: _270  and  _273
REMARK  109  A    between atoms: _273  and  _274
REMARK  110  A    between atoms: _276  and  _278
REMARK  111  A    between atoms: _278  and  _279
REMARK  112  A    between atoms: _278  and  _281
REMARK  113  A    between atoms: _281  and  _282
REMARK  114  A    between atoms: _282  and  _283
REMARK  115  A    between atoms: _286  and  _288
REMARK  116  A    between atoms: _288  and  _289
REMARK  117  A    between atoms: _288  and  _291
REMARK  118  A    between atoms: _291  and  _292
REMARK  119  A    between atoms: _292  and  _293
REMARK  120  A    between atoms: _293  and  _294
REMARK  121  A    between atoms: _294  and  _295
REMARK  122  A    between atoms: _299  and  _301
REMARK  123  A    between atoms: _301  and  _302
REMARK  124  A    between atoms: _301  and  _304
REMARK  125  A    between atoms: _304  and  _305
REMARK  126  A    between atoms: _305  and  _306
REMARK  127  A    between atoms: _306  and  _307
REMARK  128  A    between atoms: _307  and  _308
REMARK  129  A    between atoms: _313  and  _314
REMARK  130  A    between atoms: _319  and  _321
REMARK  131  A    between atoms: _321  and  _322
REMARK  132  A    between atoms: _321  and  _324
REMARK  133  A    between atoms: _324  and  _325
REMARK  134  A    between atoms: _328  and  _330
REMARK  135  A    between atoms: _330  and  _331
REMARK  136  A    between atoms: _330  and  _333
REMARK  137  A    between atoms: _333  and  _334
REMARK  138  A    between atoms: _340  and  _342
REMARK  139  A    between atoms: _342  and  _343
REMARK  140  A    between atoms: _342  and  _345
REMARK  141  A    between atoms: _345  and  _346
REMARK  142  A    between atoms: _351  and  _352
REMARK  143  A    between atoms: _354  and  _356
REMARK  144  A    between atoms: _356  and  _357
REMARK  145  A    between atoms: _356  and  _359
REMARK  146  A    between atoms: _359  and  _360
REMARK  147  A    between atoms: _365  and  _367
REMARK  148  A    between atoms: _367  and  _368
REMARK  149  A    between atoms: _367  and  _370
REMARK  150  A    between atoms: _370  and  _371
REMARK  151  A    between atoms: _371  and  _372
REMARK  152  A    between atoms: _377  and  _379
REMARK  153  A    between atoms: _379  and  _380
REMARK  154  A    between atoms: _379  and  _382
REMARK  155  A    between atoms: _382  and  _383
REMARK  156  A    between atoms: _386  and  _388
REMARK  157  A    between atoms: _388  and  _389
REMARK  158  A    between atoms: _388  and  _391
REMARK  159  A    between atoms: _391  and  _392
REMARK  160  A    between atoms: _392  and  _393
REMARK  161  A    between atoms: _393  and  _394
REMARK  162  A    between atoms: _394  and  _395
REMARK  163  A    between atoms: _399  and  _401
REMARK  164  A    between atoms: _401  and  _402
REMARK  165  A    between atoms: _405  and  _407
REMARK  166  A    between atoms: _407  and  _408
REMARK  167  A    between atoms: _407  and  _410
REMARK  168  A    between atoms: _410  and  _411
REMARK  169  A    between atoms: _417  and  _419
REMARK  170  A    between atoms: _419  and  _420
REMARK  171  A    between atoms: _419  and  _422
REMARK  172  A    between atoms: _422  and  _423
REMARK  173  A    between atoms: _426  and  _428
REMARK  174  A    between atoms: _428  and  _429
REMARK  175  A    between atoms: _428  and  _431
REMARK  176  A    between atoms: _431  and  _432
REMARK  177  A    between atoms: _435  and  _437
REMARK  178  A    between atoms: _437  and  _438
REMARK  179  A    between atoms: _437  and  _440
REMARK  180  A    between atoms: _443  and  _445
REMARK  181  A    between atoms: _445  and  _446
REMARK  182  A    between atoms: _445  and  _448
REMARK  183  A    between atoms: _448  and  _449
REMARK  184  A    between atoms: _449  and  _450
REMARK  185  A    between atoms: _450  and  _451
REMARK  186  A    between atoms: _451  and  _452
REMARK  187  A    between atoms: _456  and  _458
REMARK  188  A    between atoms: _458  and  _459
REMARK  189  A    between atoms: _458  and  _461
REMARK  190  A    between atoms: _461  and  _462
REMARK  191  A    between atoms: _462  and  _463
REMARK  192  A    between atoms: _468  and  _470
REMARK  193  A    between atoms: _470  and  _471
REMARK  194  A    between atoms: _470  and  _473
REMARK  195  A    between atoms: _473  and  _474
REMARK  196  A    between atoms: _480  and  _482
REMARK  197  A    between atoms: _482  and  _483
REMARK  198  A    between atoms: _482  and  _485
REMARK  199  A    between atoms: _485  and  _486
REMARK  200  A    between atoms: _490  and  _491
REMARK  201  A    between atoms: _497  and  _498
REMARK  202  A    between atoms: _503  and  _505
REMARK  203  A    between atoms: _505  and  _506
REMARK  204  A    between atoms: _505  and  _508
REMARK  205  A    between atoms: _508  and  _509
REMARK  206  A    between atoms: _512  and  _514
REMARK  207  A    between atoms: _514  and  _515
REMARK  208  A    between atoms: _514  and  _517
REMARK  209  A    between atoms: _517  and  _518
REMARK  210  A    between atoms: _523  and  _525
REMARK  211  A    between atoms: _525  and  _526
REMARK  212  A    between atoms: _525  and  _528
REMARK  213  A    between atoms: _528  and  _529
REMARK  214  A    between atoms: _532  and  _534
REMARK  215  A    between atoms: _534  and  _535
REMARK  216  A    between atoms: _534  and  _537
REMARK  217  A    between atoms: _537  and  _538
REMARK  218  A    between atoms: _538  and  _539
REMARK  219  A    between atoms: _542  and  _544
REMARK  220  A    between atoms: _544  and  _545
REMARK  221  A    between atoms: _547  and  _549
REMARK  222  A    between atoms: _549  and  _550
REMARK  223  A    between atoms: _549  and  _552
REMARK  224  A    between atoms: _552  and  _553
REMARK  225  A    between atoms: _556  and  _558
REMARK  226  A    between atoms: _558  and  _559
REMARK  227  A    between atoms: _562  and  _564
REMARK  228  A    between atoms: _564  and  _565
REMARK  229  A    between atoms: _564  and  _567
REMARK  230  A    between atoms: _567  and  _568
REMARK  231  A    between atoms: _571  and  _572
REMARK  232  A    between atoms: _577  and  _579
REMARK  233  A    between atoms: _579  and  _580
REMARK  234  A    between atoms: _579  and  _582
REMARK  235  A    between atoms: _582  and  _583
REMARK  236  A    between atoms: _589  and  _591
REMARK  237  A    between atoms: _591  and  _592
REMARK  238  A    between atoms: _591  and  _594
REMARK  239  A    between atoms: _597  and  _599
REMARK  240  A    between atoms: _599  and  _600
REMARK  241  A    between atoms: _599  and  _602
REMARK  242  A    between atoms: _602  and  _603
REMARK  243  A    between atoms: _603  and  _604
REMARK  244  A    between atoms: _607  and  _609
REMARK  245  A    between atoms: _609  and  _610
REMARK  246  A    between atoms: _609  and  _612
REMARK  247  A    between atoms: _612  and  _613
REMARK                            x       y       z     vdW  Elec       q    Type
REMARK                         _______ _______ _______ _____ _____    ______ ____
ROOT
ATOM      1  O   HOH     1      52.518  36.704  27.228  0.00  0.00    +0.000 OA
ENDROOT
TORSDOF 0
REMARK  Name = ../refined-set-2016/1zhy/1zhy_pocket.pdb
REMARK  247 active torsions:
REMARK  status: ('A' for Active; 'I' for Inactive)
REMARK    1  A    between atoms: _1  and  _3
REMARK    2  A    between atoms: _3  and  _4
REMARK    3  A    between atoms: _3  and  _6
REMARK    4  A    between atoms: _6  and  _7
REMARK    5  A    between atoms: _17  and  _19
REMARK    6  A    between atoms: _19  and  _20
REMARK    7  A    between atoms: _19  and  _22
REMARK    8  A    between atoms: _22  and  _23
REMARK    9  A    between atoms: _29  and  _31
REMARK   10  A    between atoms: _31  and  _32
REMARK   11  A    between atoms: _31  and  _34
REMARK   12  A    between atoms: _34  and  _35
REMARK   13  A    between atoms: _38  and  _40
REMARK   14  A    between atoms: _40  and  _41
REMARK   15  A    between atoms: _40  and  _43
REMARK   16  A    between atoms: _43  and  _44
REMARK   17  A    between atoms: _47  and  _49
REMARK   18  A    between atoms: _49  and  _50
REMARK   19  A    between atoms: _49  and  _52
REMARK   20  A    between atoms: _52  and  _53
REMARK   21  A    between atoms: _55  and  _57
REMARK   22  A    between atoms: _57  and  _58
REMARK   23  A    between atoms: _57  and  _60
REMARK   24  A    between atoms: _60  and  _61
REMARK   25  A    between atoms: _64  and  _66
REMARK   26  A    between atoms: _66  and  _67
REMARK   27  A    between atoms: _71  and  _72
REMARK   28  A    between atoms: _77  and  _79
REMARK   29  A    between atoms: _79  and  _80
REMARK   30  A    between atoms: _79  and  _82
REMARK   31  A    between atoms: _82  and  _83
REMARK   32  A    between atoms: _86  and  _88
REMARK   33  A    between atoms: _88  and  _89
REMARK   34  A    between atoms: _88  and  _91
REMARK   35  A    between atoms: _91  and  _92
REMARK   36  A    between atoms: _95  and  _97
REMARK   37  A    between atoms: _97  and  _98
REMARK   38  A    between atoms: _97  and  _100
REMARK   39  A    between atoms: _100  and  _101
REMARK   40  A    between atoms: _103  and  _105
REMARK   41  A    between atoms: _105  and  _106
REMARK   42  A    between atoms: _105  and  _108
REMARK   43  A    between atoms: _108  and  _109
REMARK   44  A    between atoms: _112  and  _114
REMARK   45  A    between atoms: _114  and  _115
REMARK   46  A    between atoms: _114  and  _117
REMARK   47  A    between atoms: _117  and  _118
REMARK   48  A    between atoms: _118  and  _119
REMARK   49  A    between atoms: _122  and  _124
REMARK   50  A    between atoms: _124  and  _125
REMARK   51  A    between atoms: _124  and  _127
REMARK   52  A    between atoms: _127  and  _128
REMARK   53  A    between atoms: _134  and  _136
REMARK   54  A    between atoms: _136  and  _137
REMARK   55  A    between atoms: _136  and  _139
REMARK   56  A    between atoms: _139  and  _140
REMARK   57  A    between atoms: _142  and  _144
REMARK   58  A    between atoms: _144  and  _145
REMARK   59  A    between atoms: _144  and  _147
REMARK   60  A    between atoms: _147  and  _148
REMARK   61  A    between atoms: _148  and  _149
REMARK   62  A    between atoms: _154  and  _156
REMARK   63  A    between atoms: _156  and  _157
REMARK   64  A    between atoms: _156  and  _159
REMARK   65  A    between atoms: _159  and  _160
REMARK   66  A    between atoms: _165  and  _166
REMARK   67  A    between atoms: _168  and  _170
REMARK   68  A    between atoms: _170  and  _171
REMARK   69  A    between atoms: _170  and  _173
REMARK   70  A    between atoms: _173  and  _174
REMARK   71  A    between atoms: _184  and  _186
REMARK   72  A    between atoms: _186  and  _187
REMARK   73  A    between atoms: _186  and  _189
REMARK   74  A    between atoms: _189  and  _190
REMARK   75  A    between atoms: _193  and  _195
REMARK   76  A    between atoms: _195  and  _196
REMARK   77  A    between atoms: _195  and  _198
REMARK   78  A    between atoms: _198  and  _199
REMARK   79  A    between atoms: _202  and  _204
REMARK   80  A    between atoms: _204  and  _205
REMARK   81  A    between atoms: _204  and  _207
REMARK   82  A    between atoms: _207  and  _208
REMARK   83  A    between atoms: _210  and  _212
REMARK   84  A    between atoms: _212  and  _213
REMARK   85  A    between atoms: _212  and  _215
REMARK   86  A    between atoms: _215  and  _216
REMARK   87  A    between atoms: _216  and  _217
REMARK   88  A    between atoms: _222  and  _224
REMARK   89  A    between atoms: _224  and  _225
REMARK   90  A    between atoms: _224  and  _227
REMARK   91  A    between atoms: _227  and  _228
REMARK   92  A    between atoms: _233  and  _234
REMARK   93  A    between atoms: _236  and  _238
REMARK   94  A    between atoms: _238  and  _239
REMARK   95  A    between atoms: _238  and  _241
REMARK   96  A    between atoms: _243  and  _245
REMARK   97  A    between atoms: _245  and  _246
REMARK   98  A    between atoms: _245  and  _248
REMARK   99  A    between atoms: _248  and  _249
REMARK  100  A    between atoms: _251  and  _253
REMARK  101  A    between atoms: _253  and  _254
REMARK  102  A    between atoms: _253  and  _256
REMARK  103  A    between atoms: _256  and  _257
REMARK  104  A    between atoms: _257  and  _258
REMARK  105  A    between atoms: _258  and  _259
REMARK  106  A    between atoms: _268  and  _270
REMARK  107  A    between atoms: _270  and  _271
REMARK  108  A    between atoms: _270  and  _273
REMARK  109  A    between atoms: _273  and  _274
REMARK  110  A    between atoms: _276  and  _278
REMARK  111  A    between atoms: _278  and  _279
REMARK  112  A    between atoms: _278  and  _281
REMARK  113  A    between atoms: _281  and  _282
REMARK  114  A    between atoms: _282  and  _283
REMARK  115  A    between atoms: _286  and  _288
REMARK  116  A    between atoms: _288  and  _289
REMARK  117  A    between atoms: _288  and  _291
REMARK  118  A    between atoms: _291  and  _292
REMARK  119  A    between atoms: _292  and  _293
REMARK  120  A    between atoms: _293  and  _294
REMARK  121  A    between atoms: _294  and  _295
REMARK  122  A    between atoms: _299  and  _301
REMARK  123  A    between atoms: _301  and  _302
REMARK  124  A    between atoms: _301  and  _304
REMARK  125  A    between atoms: _304  and  _305
REMARK  126  A    between atoms: _305  and  _306
REMARK  127  A    between atoms: _306  and  _307
REMARK  128  A    between atoms: _307  and  _308
REMARK  129  A    between atoms: _313  and  _314
REMARK  130  A    between atoms: _319  and  _321
REMARK  131  A    between atoms: _321  and  _322
REMARK  132  A    between atoms: _321  and  _324
REMARK  133  A    between atoms: _324  and  _325
REMARK  134  A    between atoms: _328  and  _330
REMARK  135  A    between atoms: _330  and  _331
REMARK  136  A    between atoms: _330  and  _333
REMARK  137  A    between atoms: _333  and  _334
REMARK  138  A    between atoms: _340  and  _342
REMARK  139  A    between atoms: _342  and  _343
REMARK  140  A    between atoms: _342  and  _345
REMARK  141  A    between atoms: _345  and  _346
REMARK  142  A    between atoms: _351  and  _352
REMARK  143  A    between atoms: _354  and  _356
REMARK  144  A    between atoms: _356  and  _357
REMARK  145  A    between atoms: _356  and  _359
REMARK  146  A    between atoms: _359  and  _360
REMARK  147  A    between atoms: _365  and  _367
REMARK  148  A    between atoms: _367  and  _368
REMARK  149  A    between atoms: _367  and  _370
REMARK  150  A    between atoms: _370  and  _371
REMARK  151  A    between atoms: _371  and  _372
REMARK  152  A    between atoms: _377  and  _379
REMARK  153  A    between atoms: _379  and  _380
REMARK  154  A    between atoms: _379  and  _382
REMARK  155  A    between atoms: _382  and  _383
REMARK  156  A    between atoms: _386  and  _388
REMARK  157  A    between atoms: _388  and  _389
REMARK  158  A    between atoms: _388  and  _391
REMARK  159  A    between atoms: _391  and  _392
REMARK  160  A    between atoms: _392  and  _393
REMARK  161  A    between atoms: _393  and  _394
REMARK  162  A    between atoms: _394  and  _395
REMARK  163  A    between atoms: _399  and  _401
REMARK  164  A    between atoms: _401  and  _402
REMARK  165  A    between atoms: _405  and  _407
REMARK  166  A    between atoms: _407  and  _408
REMARK  167  A    between atoms: _407  and  _410
REMARK  168  A    between atoms: _410  and  _411
REMARK  169  A    between atoms: _417  and  _419
REMARK  170  A    between atoms: _419  and  _420
REMARK  171  A    between atoms: _419  and  _422
REMARK  172  A    between atoms: _422  and  _423
REMARK  173  A    between atoms: _426  and  _428
REMARK  174  A    between atoms: _428  and  _429
REMARK  175  A    between atoms: _428  and  _431
REMARK  176  A    between atoms: _431  and  _432
REMARK  177  A    between atoms: _435  and  _437
REMARK  178  A    between atoms: _437  and  _438
REMARK  179  A    between atoms: _437  and  _440
REMARK  180  A    between atoms: _443  and  _445
REMARK  181  A    between atoms: _445  and  _446
REMARK  182  A    between atoms: _445  and  _448
REMARK  183  A    between atoms: _448  and  _449
REMARK  184  A    between atoms: _449  and  _450
REMARK  185  A    between atoms: _450  and  _451
REMARK  186  A    between atoms: _451  and  _452
REMARK  187  A    between atoms: _456  and  _458
REMARK  188  A    between atoms: _458  and  _459
REMARK  189  A    between atoms: _458  and  _461
REMARK  190  A    between atoms: _461  and  _462
REMARK  191  A    between atoms: _462  and  _463
REMARK  192  A    between atoms: _468  and  _470
REMARK  193  A    between atoms: _470  and  _471
REMARK  194  A    between atoms: _470  and  _473
REMARK  195  A    between atoms: _473  and  _474
REMARK  196  A    between atoms: _480  and  _482
REMARK  197  A    between atoms: _482  and  _483
REMARK  198  A    between atoms: _482  and  _485
REMARK  199  A    between atoms: _485  and  _486
REMARK  200  A    between atoms: _490  and  _491
REMARK  201  A    between atoms: _497  and  _498
REMARK  202  A    between atoms: _503  and  _505
REMARK  203  A    between atoms: _505  and  _506
REMARK  204  A    between atoms: _505  and  _508
REMARK  205  A    between atoms: _508  and  _509
REMARK  206  A    between atoms: _512  and  _514
REMARK  207  A    between atoms: _514  and  _515
REMARK  208  A    between atoms: _514  and  _517
REMARK  209  A    between atoms: _517  and  _518
REMARK  210  A    between atoms: _523  and  _525
REMARK  211  A    between atoms: _525  and  _526
REMARK  212  A    between atoms: _525  and  _528
REMARK  213  A    between atoms: _528  and  _529
REMARK  214  A    between atoms: _532  and  _534
REMARK  215  A    between atoms: _534  and  _535
REMARK  216  A    between atoms: _534  and  _537
REMARK  217  A    between atoms: _537  and  _538
REMARK  218  A    between atoms: _538  and  _539
REMARK  219  A    between atoms: _542  and  _544
REMARK  220  A    between atoms: _544  and  _545
REMARK  221  A    between atoms: _547  and  _549
REMARK  222  A    between atoms: _549  and  _550
REMARK  223  A    between atoms: _549  and  _552
REMARK  224  A    between atoms: _552  and  _553
REMARK  225  A    between atoms: _556  and  _558
REMARK  226  A    between atoms: _558  and  _559
REMARK  227  A    between atoms: _562  and  _564
REMARK  228  A    between atoms: _564  and  _565
REMARK  229  A    between atoms: _564  and  _567
REMARK  230  A    between atoms: _567  and  _568
REMARK  231  A    between atoms: _571  and  _572
REMARK  232  A    between atoms: _577  and  _579
REMARK  233  A    between atoms: _579  and  _580
REMARK  234  A    between atoms: _579  and  _582
REMARK  235  A    between atoms: _582  and  _583
REMARK  236  A    between atoms: _589  and  _591
REMARK  237  A    between atoms: _591  and  _592
REMARK  238  A    between atoms: _591  and  _594
REMARK  239  A    between atoms: _597  and  _599
REMARK  240  A    between atoms: _599  and  _600
REMARK  241  A    between atoms: _599  and  _602
REMARK  242  A    between atoms: _602  and  _603
REMARK  243  A    between atoms: _603  and  _604
REMARK  244  A    between atoms: _607  and  _609
REMARK  245  A    between atoms: _609  and  _610
REMARK  246  A    between atoms: _609  and  _612
REMARK  247  A    between atoms: _612  and  _613
REMARK                            x       y       z     vdW  Elec       q    Type
REMARK                         _______ _______ _______ _____ _____    ______ ____
ROOT
ATOM      1  O   HOH     1      49.063  29.711  29.674  0.00  0.00    +0.000 OA
ENDROOT
TORSDOF 0
REMARK  Name = ../refined-set-2016/1zhy/1zhy_pocket.pdb
REMARK  247 active torsions:
REMARK  status: ('A' for Active; 'I' for Inactive)
REMARK    1  A    between atoms: _1  and  _3
REMARK    2  A    between atoms: _3  and  _4
REMARK    3  A    between atoms: _3  and  _6
REMARK    4  A    between atoms: _6  and  _7
REMARK    5  A    between atoms: _17  and  _19
REMARK    6  A    between atoms: _19  and  _20
REMARK    7  A    between atoms: _19  and  _22
REMARK    8  A    between atoms: _22  and  _23
REMARK    9  A    between atoms: _29  and  _31
REMARK   10  A    between atoms: _31  and  _32
REMARK   11  A    between atoms: _31  and  _34
REMARK   12  A    between atoms: _34  and  _35
REMARK   13  A    between atoms: _38  and  _40
REMARK   14  A    between atoms: _40  and  _41
REMARK   15  A    between atoms: _40  and  _43
REMARK   16  A    between atoms: _43  and  _44
REMARK   17  A    between atoms: _47  and  _49
REMARK   18  A    between atoms: _49  and  _50
REMARK   19  A    between atoms: _49  and  _52
REMARK   20  A    between atoms: _52  and  _53
REMARK   21  A    between atoms: _55  and  _57
REMARK   22  A    between atoms: _57  and  _58
REMARK   23  A    between atoms: _57  and  _60
REMARK   24  A    between atoms: _60  and  _61
REMARK   25  A    between atoms: _64  and  _66
REMARK   26  A    between atoms: _66  and  _67
REMARK   27  A    between atoms: _71  and  _72
REMARK   28  A    between atoms: _77  and  _79
REMARK   29  A    between atoms: _79  and  _80
REMARK   30  A    between atoms: _79  and  _82
REMARK   31  A    between atoms: _82  and  _83
REMARK   32  A    between atoms: _86  and  _88
REMARK   33  A    between atoms: _88  and  _89
REMARK   34  A    between atoms: _88  and  _91
REMARK   35  A    between atoms: _91  and  _92
REMARK   36  A    between atoms: _95  and  _97
REMARK   37  A    between atoms: _97  and  _98
REMARK   38  A    between atoms: _97  and  _100
REMARK   39  A    between atoms: _100  and  _101
REMARK   40  A    between atoms: _103  and  _105
REMARK   41  A    between atoms: _105  and  _106
REMARK   42  A    between atoms: _105  and  _108
REMARK   43  A    between atoms: _108  and  _109
REMARK   44  A    between atoms: _112  and  _114
REMARK   45  A    between atoms: _114  and  _115
REMARK   46  A    between atoms: _114  and  _117
REMARK   47  A    between atoms: _117  and  _118
REMARK   48  A    between atoms: _118  and  _119
REMARK   49  A    between atoms: _122  and  _124
REMARK   50  A    between atoms: _124  and  _125
REMARK   51  A    between atoms: _124  and  _127
REMARK   52  A    between atoms: _127  and  _128
REMARK   53  A    between atoms: _134  and  _136
REMARK   54  A    between atoms: _136  and  _137
REMARK   55  A    between atoms: _136  and  _139
REMARK   56  A    between atoms: _139  and  _140
REMARK   57  A    between atoms: _142  and  _144
REMARK   58  A    between atoms: _144  and  _145
REMARK   59  A    between atoms: _144  and  _147
REMARK   60  A    between atoms: _147  and  _148
REMARK   61  A    between atoms: _148  and  _149
REMARK   62  A    between atoms: _154  and  _156
REMARK   63  A    between atoms: _156  and  _157
REMARK   64  A    between atoms: _156  and  _159
REMARK   65  A    between atoms: _159  and  _160
REMARK   66  A    between atoms: _165  and  _166
REMARK   67  A    between atoms: _168  and  _170
REMARK   68  A    between atoms: _170  and  _171
REMARK   69  A    between atoms: _170  and  _173
REMARK   70  A    between atoms: _173  and  _174
REMARK   71  A    between atoms: _184  and  _186
REMARK   72  A    between atoms: _186  and  _187
REMARK   73  A    between atoms: _186  and  _189
REMARK   74  A    between atoms: _189  and  _190
REMARK   75  A    between atoms: _193  and  _195
REMARK   76  A    between atoms: _195  and  _196
REMARK   77  A    between atoms: _195  and  _198
REMARK   78  A    between atoms: _198  and  _199
REMARK   79  A    between atoms: _202  and  _204
REMARK   80  A    between atoms: _204  and  _205
REMARK   81  A    between atoms: _204  and  _207
REMARK   82  A    between atoms: _207  and  _208
REMARK   83  A    between atoms: _210  and  _212
REMARK   84  A    between atoms: _212  and  _213
REMARK   85  A    between atoms: _212  and  _215
REMARK   86  A    between atoms: _215  and  _216
REMARK   87  A    between atoms: _216  and  _217
REMARK   88  A    between atoms: _222  and  _224
REMARK   89  A    between atoms: _224  and  _225
REMARK   90  A    between atoms: _224  and  _227
REMARK   91  A    between atoms: _227  and  _228
REMARK   92  A    between atoms: _233  and  _234
REMARK   93  A    between atoms: _236  and  _238
REMARK   94  A    between atoms: _238  and  _239
REMARK   95  A    between atoms: _238  and  _241
REMARK   96  A    between atoms: _243  and  _245
REMARK   97  A    between atoms: _245  and  _246
REMARK   98  A    between atoms: _245  and  _248
REMARK   99  A    between atoms: _248  and  _249
REMARK  100  A    between atoms: _251  and  _253
REMARK  101  A    between atoms: _253  and  _254
REMARK  102  A    between atoms: _253  and  _256
REMARK  103  A    between atoms: _256  and  _257
REMARK  104  A    between atoms: _257  and  _258
REMARK  105  A    between atoms: _258  and  _259
REMARK  106  A    between atoms: _268  and  _270
REMARK  107  A    between atoms: _270  and  _271
REMARK  108  A    between atoms: _270  and  _273
REMARK  109  A    between atoms: _273  and  _274
REMARK  110  A    between atoms: _276  and  _278
REMARK  111  A    between atoms: _278  and  _279
REMARK  112  A    between atoms: _278  and  _281
REMARK  113  A    between atoms: _281  and  _282
REMARK  114  A    between atoms: _282  and  _283
REMARK  115  A    between atoms: _286  and  _288
REMARK  116  A    between atoms: _288  and  _289
REMARK  117  A    between atoms: _288  and  _291
REMARK  118  A    between atoms: _291  and  _292
REMARK  119  A    between atoms: _292  and  _293
REMARK  120  A    between atoms: _293  and  _294
REMARK  121  A    between atoms: _294  and  _295
REMARK  122  A    between atoms: _299  and  _301
REMARK  123  A    between atoms: _301  and  _302
REMARK  124  A    between atoms: _301  and  _304
REMARK  125  A    between atoms: _304  and  _305
REMARK  126  A    between atoms: _305  and  _306
REMARK  127  A    between atoms: _306  and  _307
REMARK  128  A    between atoms: _307  and  _308
REMARK  129  A    between atoms: _313  and  _314
REMARK  130  A    between atoms: _319  and  _321
REMARK  131  A    between atoms: _321  and  _322
REMARK  132  A    between atoms: _321  and  _324
REMARK  133  A    between atoms: _324  and  _325
REMARK  134  A    between atoms: _328  and  _330
REMARK  135  A    between atoms: _330  and  _331
REMARK  136  A    between atoms: _330  and  _333
REMARK  137  A    between atoms: _333  and  _334
REMARK  138  A    between atoms: _340  and  _342
REMARK  139  A    between atoms: _342  and  _343
REMARK  140  A    between atoms: _342  and  _345
REMARK  141  A    between atoms: _345  and  _346
REMARK  142  A    between atoms: _351  and  _352
REMARK  143  A    between atoms: _354  and  _356
REMARK  144  A    between atoms: _356  and  _357
REMARK  145  A    between atoms: _356  and  _359
REMARK  146  A    between atoms: _359  and  _360
REMARK  147  A    between atoms: _365  and  _367
REMARK  148  A    between atoms: _367  and  _368
REMARK  149  A    between atoms: _367  and  _370
REMARK  150  A    between atoms: _370  and  _371
REMARK  151  A    between atoms: _371  and  _372
REMARK  152  A    between atoms: _377  and  _379
REMARK  153  A    between atoms: _379  and  _380
REMARK  154  A    between atoms: _379  and  _382
REMARK  155  A    between atoms: _382  and  _383
REMARK  156  A    between atoms: _386  and  _388
REMARK  157  A    between atoms: _388  and  _389
REMARK  158  A    between atoms: _388  and  _391
REMARK  159  A    between atoms: _391  and  _392
REMARK  160  A    between atoms: _392  and  _393
REMARK  161  A    between atoms: _393  and  _394
REMARK  162  A    between atoms: _394  and  _395
REMARK  163  A    between atoms: _399  and  _401
REMARK  164  A    between atoms: _401  and  _402
REMARK  165  A    between atoms: _405  and  _407
REMARK  166  A    between atoms: _407  and  _408
REMARK  167  A    between atoms: _407  and  _410
REMARK  168  A    between atoms: _410  and  _411
REMARK  169  A    between atoms: _417  and  _419
REMARK  170  A    between atoms: _419  and  _420
REMARK  171  A    between atoms: _419  and  _422
REMARK  172  A    between atoms: _422  and  _423
REMARK  173  A    between atoms: _426  and  _428
REMARK  174  A    between atoms: _428  and  _429
REMARK  175  A    between atoms: _428  and  _431
REMARK  176  A    between atoms: _431  and  _432
REMARK  177  A    between atoms: _435  and  _437
REMARK  178  A    between atoms: _437  and  _438
REMARK  179  A    between atoms: _437  and  _440
REMARK  180  A    between atoms: _443  and  _445
REMARK  181  A    between atoms: _445  and  _446
REMARK  182  A    between atoms: _445  and  _448
REMARK  183  A    between atoms: _448  and  _449
REMARK  184  A    between atoms: _449  and  _450
REMARK  185  A    between atoms: _450  and  _451
REMARK  186  A    between atoms: _451  and  _452
REMARK  187  A    between atoms: _456  and  _458
REMARK  188  A    between atoms: _458  and  _459
REMARK  189  A    between atoms: _458  and  _461
REMARK  190  A    between atoms: _461  and  _462
REMARK  191  A    between atoms: _462  and  _463
REMARK  192  A    between atoms: _468  and  _470
REMARK  193  A    between atoms: _470  and  _471
REMARK  194  A    between atoms: _470  and  _473
REMARK  195  A    between atoms: _473  and  _474
REMARK  196  A    between atoms: _480  and  _482
REMARK  197  A    between atoms: _482  and  _483
REMARK  198  A    between atoms: _482  and  _485
REMARK  199  A    between atoms: _485  and  _486
REMARK  200  A    between atoms: _490  and  _491
REMARK  201  A    between atoms: _497  and  _498
REMARK  202  A    between atoms: _503  and  _505
REMARK  203  A    between atoms: _505  and  _506
REMARK  204  A    between atoms: _505  and  _508
REMARK  205  A    between atoms: _508  and  _509
REMARK  206  A    between atoms: _512  and  _514
REMARK  207  A    between atoms: _514  and  _515
REMARK  208  A    between atoms: _514  and  _517
REMARK  209  A    between atoms: _517  and  _518
REMARK  210  A    between atoms: _523  and  _525
REMARK  211  A    between atoms: _525  and  _526
REMARK  212  A    between atoms: _525  and  _528
REMARK  213  A    between atoms: _528  and  _529
REMARK  214  A    between atoms: _532  and  _534
REMARK  215  A    between atoms: _534  and  _535
REMARK  216  A    between atoms: _534  and  _537
REMARK  217  A    between atoms: _537  and  _538
REMARK  218  A    between atoms: _538  and  _539
REMARK  219  A    between atoms: _542  and  _544
REMARK  220  A    between atoms: _544  and  _545
REMARK  221  A    between atoms: _547  and  _549
REMARK  222  A    between atoms: _549  and  _550
REMARK  223  A    between atoms: _549  and  _552
REMARK  224  A    between atoms: _552  and  _553
REMARK  225  A    between atoms: _556  and  _558
REMARK  226  A    between atoms: _558  and  _559
REMARK  227  A    between atoms: _562  and  _564
REMARK  228  A    between atoms: _564  and  _565
REMARK  229  A    between atoms: _564  and  _567
REMARK  230  A    between atoms: _567  and  _568
REMARK  231  A    between atoms: _571  and  _572
REMARK  232  A    between atoms: _577  and  _579
REMARK  233  A    between atoms: _579  and  _580
REMARK  234  A    between atoms: _579  and  _582
REMARK  235  A    between atoms: _582  and  _583
REMARK  236  A    between atoms: _589  and  _591
REMARK  237  A    between atoms: _591  and  _592
REMARK  238  A    between atoms: _591  and  _594
REMARK  239  A    between atoms: _597  and  _599
REMARK  240  A    between atoms: _599  and  _600
REMARK  241  A    between atoms: _599  and  _602
REMARK  242  A    between atoms: _602  and  _603
REMARK  243  A    between atoms: _603  and  _604
REMARK  244  A    between atoms: _607  and  _609
REMARK  245  A    between atoms: _609  and  _610
REMARK  246  A    between atoms: _609  and  _612
REMARK  247  A    between atoms: _612  and  _613
REMARK                            x       y       z     vdW  Elec       q    Type
REMARK                         _______ _______ _______ _____ _____    ______ ____
ROOT
ATOM      1  O   HOH     1      66.001  35.903  28.162  0.00  0.00    +0.000 OA
ENDROOT
TORSDOF 0
REMARK  Name = ../refined-set-2016/1zhy/1zhy_pocket.pdb
REMARK  247 active torsions:
REMARK  status: ('A' for Active; 'I' for Inactive)
REMARK    1  A    between atoms: _1  and  _3
REMARK    2  A    between atoms: _3  and  _4
REMARK    3  A    between atoms: _3  and  _6
REMARK    4  A    between atoms: _6  and  _7
REMARK    5  A    between atoms: _17  and  _19
REMARK    6  A    between atoms: _19  and  _20
REMARK    7  A    between atoms: _19  and  _22
REMARK    8  A    between atoms: _22  and  _23
REMARK    9  A    between atoms: _29  and  _31
REMARK   10  A    between atoms: _31  and  _32
REMARK   11  A    between atoms: _31  and  _34
REMARK   12  A    between atoms: _34  and  _35
REMARK   13  A    between atoms: _38  and  _40
REMARK   14  A    between atoms: _40  and  _41
REMARK   15  A    between atoms: _40  and  _43
REMARK   16  A    between atoms: _43  and  _44
REMARK   17  A    between atoms: _47  and  _49
REMARK   18  A    between atoms: _49  and  _50
REMARK   19  A    between atoms: _49  and  _52
REMARK   20  A    between atoms: _52  and  _53
REMARK   21  A    between atoms: _55  and  _57
REMARK   22  A    between atoms: _57  and  _58
REMARK   23  A    between atoms: _57  and  _60
REMARK   24  A    between atoms: _60  and  _61
REMARK   25  A    between atoms: _64  and  _66
REMARK   26  A    between atoms: _66  and  _67
REMARK   27  A    between atoms: _71  and  _72
REMARK   28  A    between atoms: _77  and  _79
REMARK   29  A    between atoms: _79  and  _80
REMARK   30  A    between atoms: _79  and  _82
REMARK   31  A    between atoms: _82  and  _83
REMARK   32  A    between atoms: _86  and  _88
REMARK   33  A    between atoms: _88  and  _89
REMARK   34  A    between atoms: _88  and  _91
REMARK   35  A    between atoms: _91  and  _92
REMARK   36  A    between atoms: _95  and  _97
REMARK   37  A    between atoms: _97  and  _98
REMARK   38  A    between atoms: _97  and  _100
REMARK   39  A    between atoms: _100  and  _101
REMARK   40  A    between atoms: _103  and  _105
REMARK   41  A    between atoms: _105  and  _106
REMARK   42  A    between atoms: _105  and  _108
REMARK   43  A    between atoms: _108  and  _109
REMARK   44  A    between atoms: _112  and  _114
REMARK   45  A    between atoms: _114  and  _115
REMARK   46  A    between atoms: _114  and  _117
REMARK   47  A    between atoms: _117  and  _118
REMARK   48  A    between atoms: _118  and  _119
REMARK   49  A    between atoms: _122  and  _124
REMARK   50  A    between atoms: _124  and  _125
REMARK   51  A    between atoms: _124  and  _127
REMARK   52  A    between atoms: _127  and  _128
REMARK   53  A    between atoms: _134  and  _136
REMARK   54  A    between atoms: _136  and  _137
REMARK   55  A    between atoms: _136  and  _139
REMARK   56  A    between atoms: _139  and  _140
REMARK   57  A    between atoms: _142  and  _144
REMARK   58  A    between atoms: _144  and  _145
REMARK   59  A    between atoms: _144  and  _147
REMARK   60  A    between atoms: _147  and  _148
REMARK   61  A    between atoms: _148  and  _149
REMARK   62  A    between atoms: _154  and  _156
REMARK   63  A    between atoms: _156  and  _157
REMARK   64  A    between atoms: _156  and  _159
REMARK   65  A    between atoms: _159  and  _160
REMARK   66  A    between atoms: _165  and  _166
REMARK   67  A    between atoms: _168  and  _170
REMARK   68  A    between atoms: _170  and  _171
REMARK   69  A    between atoms: _170  and  _173
REMARK   70  A    between atoms: _173  and  _174
REMARK   71  A    between atoms: _184  and  _186
REMARK   72  A    between atoms: _186  and  _187
REMARK   73  A    between atoms: _186  and  _189
REMARK   74  A    between atoms: _189  and  _190
REMARK   75  A    between atoms: _193  and  _195
REMARK   76  A    between atoms: _195  and  _196
REMARK   77  A    between atoms: _195  and  _198
REMARK   78  A    between atoms: _198  and  _199
REMARK   79  A    between atoms: _202  and  _204
REMARK   80  A    between atoms: _204  and  _205
REMARK   81  A    between atoms: _204  and  _207
REMARK   82  A    between atoms: _207  and  _208
REMARK   83  A    between atoms: _210  and  _212
REMARK   84  A    between atoms: _212  and  _213
REMARK   85  A    between atoms: _212  and  _215
REMARK   86  A    between atoms: _215  and  _216
REMARK   87  A    between atoms: _216  and  _217
REMARK   88  A    between atoms: _222  and  _224
REMARK   89  A    between atoms: _224  and  _225
REMARK   90  A    between atoms: _224  and  _227
REMARK   91  A    between atoms: _227  and  _228
REMARK   92  A    between atoms: _233  and  _234
REMARK   93  A    between atoms: _236  and  _238
REMARK   94  A    between atoms: _238  and  _239
REMARK   95  A    between atoms: _238  and  _241
REMARK   96  A    between atoms: _243  and  _245
REMARK   97  A    between atoms: _245  and  _246
REMARK   98  A    between atoms: _245  and  _248
REMARK   99  A    between atoms: _248  and  _249
REMARK  100  A    between atoms: _251  and  _253
REMARK  101  A    between atoms: _253  and  _254
REMARK  102  A    between atoms: _253  and  _256
REMARK  103  A    between atoms: _256  and  _257
REMARK  104  A    between atoms: _257  and  _258
REMARK  105  A    between atoms: _258  and  _259
REMARK  106  A    between atoms: _268  and  _270
REMARK  107  A    between atoms: _270  and  _271
REMARK  108  A    between atoms: _270  and  _273
REMARK  109  A    between atoms: _273  and  _274
REMARK  110  A    between atoms: _276  and  _278
REMARK  111  A    between atoms: _278  and  _279
REMARK  112  A    between atoms: _278  and  _281
REMARK  113  A    between atoms: _281  and  _282
REMARK  114  A    between atoms: _282  and  _283
REMARK  115  A    between atoms: _286  and  _288
REMARK  116  A    between atoms: _288  and  _289
REMARK  117  A    between atoms: _288  and  _291
REMARK  118  A    between atoms: _291  and  _292
REMARK  119  A    between atoms: _292  and  _293
REMARK  120  A    between atoms: _293  and  _294
REMARK  121  A    between atoms: _294  and  _295
REMARK  122  A    between atoms: _299  and  _301
REMARK  123  A    between atoms: _301  and  _302
REMARK  124  A    between atoms: _301  and  _304
REMARK  125  A    between atoms: _304  and  _305
REMARK  126  A    between atoms: _305  and  _306
REMARK  127  A    between atoms: _306  and  _307
REMARK  128  A    between atoms: _307  and  _308
REMARK  129  A    between atoms: _313  and  _314
REMARK  130  A    between atoms: _319  and  _321
REMARK  131  A    between atoms: _321  and  _322
REMARK  132  A    between atoms: _321  and  _324
REMARK  133  A    between atoms: _324  and  _325
REMARK  134  A    between atoms: _328  and  _330
REMARK  135  A    between atoms: _330  and  _331
REMARK  136  A    between atoms: _330  and  _333
REMARK  137  A    between atoms: _333  and  _334
REMARK  138  A    between atoms: _340  and  _342
REMARK  139  A    between atoms: _342  and  _343
REMARK  140  A    between atoms: _342  and  _345
REMARK  141  A    between atoms: _345  and  _346
REMARK  142  A    between atoms: _351  and  _352
REMARK  143  A    between atoms: _354  and  _356
REMARK  144  A    between atoms: _356  and  _357
REMARK  145  A    between atoms: _356  and  _359
REMARK  146  A    between atoms: _359  and  _360
REMARK  147  A    between atoms: _365  and  _367
REMARK  148  A    between atoms: _367  and  _368
REMARK  149  A    between atoms: _367  and  _370
REMARK  150  A    between atoms: _370  and  _371
REMARK  151  A    between atoms: _371  and  _372
REMARK  152  A    between atoms: _377  and  _379
REMARK  153  A    between atoms: _379  and  _380
REMARK  154  A    between atoms: _379  and  _382
REMARK  155  A    between atoms: _382  and  _383
REMARK  156  A    between atoms: _386  and  _388
REMARK  157  A    between atoms: _388  and  _389
REMARK  158  A    between atoms: _388  and  _391
REMARK  159  A    between atoms: _391  and  _392
REMARK  160  A    between atoms: _392  and  _393
REMARK  161  A    between atoms: _393  and  _394
REMARK  162  A    between atoms: _394  and  _395
REMARK  163  A    between atoms: _399  and  _401
REMARK  164  A    between atoms: _401  and  _402
REMARK  165  A    between atoms: _405  and  _407
REMARK  166  A    between atoms: _407  and  _408
REMARK  167  A    between atoms: _407  and  _410
REMARK  168  A    between atoms: _410  and  _411
REMARK  169  A    between atoms: _417  and  _419
REMARK  170  A    between atoms: _419  and  _420
REMARK  171  A    between atoms: _419  and  _422
REMARK  172  A    between atoms: _422  and  _423
REMARK  173  A    between atoms: _426  and  _428
REMARK  174  A    between atoms: _428  and  _429
REMARK  175  A    between atoms: _428  and  _431
REMARK  176  A    between atoms: _431  and  _432
REMARK  177  A    between atoms: _435  and  _437
REMARK  178  A    between atoms: _437  and  _438
REMARK  179  A    between atoms: _437  and  _440
REMARK  180  A    between atoms: _443  and  _445
REMARK  181  A    between atoms: _445  and  _446
REMARK  182  A    between atoms: _445  and  _448
REMARK  183  A    between atoms: _448  and  _449
REMARK  184  A    between atoms: _449  and  _450
REMARK  185  A    between atoms: _450  and  _451
REMARK  186  A    between atoms: _451  and  _452
REMARK  187  A    between atoms: _456  and  _458
REMARK  188  A    between atoms: _458  and  _459
REMARK  189  A    between atoms: _458  and  _461
REMARK  190  A    between atoms: _461  and  _462
REMARK  191  A    between atoms: _462  and  _463
REMARK  192  A    between atoms: _468  and  _470
REMARK  193  A    between atoms: _470  and  _471
REMARK  194  A    between atoms: _470  and  _473
REMARK  195  A    between atoms: _473  and  _474
REMARK  196  A    between atoms: _480  and  _482
REMARK  197  A    between atoms: _482  and  _483
REMARK  198  A    between atoms: _482  and  _485
REMARK  199  A    between atoms: _485  and  _486
REMARK  200  A    between atoms: _490  and  _491
REMARK  201  A    between atoms: _497  and  _498
REMARK  202  A    between atoms: _503  and  _505
REMARK  203  A    between atoms: _505  and  _506
REMARK  204  A    between atoms: _505  and  _508
REMARK  205  A    between atoms: _508  and  _509
REMARK  206  A    between atoms: _512  and  _514
REMARK  207  A    between atoms: _514  and  _515
REMARK  208  A    between atoms: _514  and  _517
REMARK  209  A    between atoms: _517  and  _518
REMARK  210  A    between atoms: _523  and  _525
REMARK  211  A    between atoms: _525  and  _526
REMARK  212  A    between atoms: _525  and  _528
REMARK  213  A    between atoms: _528  and  _529
REMARK  214  A    between atoms: _532  and  _534
REMARK  215  A    between atoms: _534  and  _535
REMARK  216  A    between atoms: _534  and  _537
REMARK  217  A    between atoms: _537  and  _538
REMARK  218  A    between atoms: _538  and  _539
REMARK  219  A    between atoms: _542  and  _544
REMARK  220  A    between atoms: _544  and  _545
REMARK  221  A    between atoms: _547  and  _549
REMARK  222  A    between atoms: _549  and  _550
REMARK  223  A    between atoms: _549  and  _552
REMARK  224  A    between atoms: _552  and  _553
REMARK  225  A    between atoms: _556  and  _558
REMARK  226  A    between atoms: _558  and  _559
REMARK  227  A    between atoms: _562  and  _564
REMARK  228  A    between atoms: _564  and  _565
REMARK  229  A    between atoms: _564  and  _567
REMARK  230  A    between atoms: _567  and  _568
REMARK  231  A    between atoms: _571  and  _572
REMARK  232  A    between atoms: _577  and  _579
REMARK  233  A    between atoms: _579  and  _580
REMARK  234  A    between atoms: _579  and  _582
REMARK  235  A    between atoms: _582  and  _583
REMARK  236  A    between atoms: _589  and  _591
REMARK  237  A    between atoms: _591  and  _592
REMARK  238  A    between atoms: _591  and  _594
REMARK  239  A    between atoms: _597  and  _599
REMARK  240  A    between atoms: _599  and  _600
REMARK  241  A    between atoms: _599  and  _602
REMARK  242  A    between atoms: _602  and  _603
REMARK  243  A    between atoms: _603  and  _604
REMARK  244  A    between atoms: _607  and  _609
REMARK  245  A    between atoms: _609  and  _610
REMARK  246  A    between atoms: _609  and  _612
REMARK  247  A    between atoms: _612  and  _613
REMARK                            x       y       z     vdW  Elec       q    Type
REMARK                         _______ _______ _______ _____ _____    ______ ____
ROOT
ATOM      1  O   HOH     1      65.337  34.943  24.778  0.00  0.00    +0.000 OA
ENDROOT
TORSDOF 0
REMARK  Name = ../refined-set-2016/1zhy/1zhy_pocket.pdb
REMARK  247 active torsions:
REMARK  status: ('A' for Active; 'I' for Inactive)
REMARK    1  A    between atoms: _1  and  _3
REMARK    2  A    between atoms: _3  and  _4
REMARK    3  A    between atoms: _3  and  _6
REMARK    4  A    between atoms: _6  and  _7
REMARK    5  A    between atoms: _17  and  _19
REMARK    6  A    between atoms: _19  and  _20
REMARK    7  A    between atoms: _19  and  _22
REMARK    8  A    between atoms: _22  and  _23
REMARK    9  A    between atoms: _29  and  _31
REMARK   10  A    between atoms: _31  and  _32
REMARK   11  A    between atoms: _31  and  _34
REMARK   12  A    between atoms: _34  and  _35
REMARK   13  A    between atoms: _38  and  _40
REMARK   14  A    between atoms: _40  and  _41
REMARK   15  A    between atoms: _40  and  _43
REMARK   16  A    between atoms: _43  and  _44
REMARK   17  A    between atoms: _47  and  _49
REMARK   18  A    between atoms: _49  and  _50
REMARK   19  A    between atoms: _49  and  _52
REMARK   20  A    between atoms: _52  and  _53
REMARK   21  A    between atoms: _55  and  _57
REMARK   22  A    between atoms: _57  and  _58
REMARK   23  A    between atoms: _57  and  _60
REMARK   24  A    between atoms: _60  and  _61
REMARK   25  A    between atoms: _64  and  _66
REMARK   26  A    between atoms: _66  and  _67
REMARK   27  A    between atoms: _71  and  _72
REMARK   28  A    between atoms: _77  and  _79
REMARK   29  A    between atoms: _79  and  _80
REMARK   30  A    between atoms: _79  and  _82
REMARK   31  A    between atoms: _82  and  _83
REMARK   32  A    between atoms: _86  and  _88
REMARK   33  A    between atoms: _88  and  _89
REMARK   34  A    between atoms: _88  and  _91
REMARK   35  A    between atoms: _91  and  _92
REMARK   36  A    between atoms: _95  and  _97
REMARK   37  A    between atoms: _97  and  _98
REMARK   38  A    between atoms: _97  and  _100
REMARK   39  A    between atoms: _100  and  _101
REMARK   40  A    between atoms: _103  and  _105
REMARK   41  A    between atoms: _105  and  _106
REMARK   42  A    between atoms: _105  and  _108
REMARK   43  A    between atoms: _108  and  _109
REMARK   44  A    between atoms: _112  and  _114
REMARK   45  A    between atoms: _114  and  _115
REMARK   46  A    between atoms: _114  and  _117
REMARK   47  A    between atoms: _117  and  _118
REMARK   48  A    between atoms: _118  and  _119
REMARK   49  A    between atoms: _122  and  _124
REMARK   50  A    between atoms: _124  and  _125
REMARK   51  A    between atoms: _124  and  _127
REMARK   52  A    between atoms: _127  and  _128
REMARK   53  A    between atoms: _134  and  _136
REMARK   54  A    between atoms: _136  and  _137
REMARK   55  A    between atoms: _136  and  _139
REMARK   56  A    between atoms: _139  and  _140
REMARK   57  A    between atoms: _142  and  _144
REMARK   58  A    between atoms: _144  and  _145
REMARK   59  A    between atoms: _144  and  _147
REMARK   60  A    between atoms: _147  and  _148
REMARK   61  A    between atoms: _148  and  _149
REMARK   62  A    between atoms: _154  and  _156
REMARK   63  A    between atoms: _156  and  _157
REMARK   64  A    between atoms: _156  and  _159
REMARK   65  A    between atoms: _159  and  _160
REMARK   66  A    between atoms: _165  and  _166
REMARK   67  A    between atoms: _168  and  _170
REMARK   68  A    between atoms: _170  and  _171
REMARK   69  A    between atoms: _170  and  _173
REMARK   70  A    between atoms: _173  and  _174
REMARK   71  A    between atoms: _184  and  _186
REMARK   72  A    between atoms: _186  and  _187
REMARK   73  A    between atoms: _186  and  _189
REMARK   74  A    between atoms: _189  and  _190
REMARK   75  A    between atoms: _193  and  _195
REMARK   76  A    between atoms: _195  and  _196
REMARK   77  A    between atoms: _195  and  _198
REMARK   78  A    between atoms: _198  and  _199
REMARK   79  A    between atoms: _202  and  _204
REMARK   80  A    between atoms: _204  and  _205
REMARK   81  A    between atoms: _204  and  _207
REMARK   82  A    between atoms: _207  and  _208
REMARK   83  A    between atoms: _210  and  _212
REMARK   84  A    between atoms: _212  and  _213
REMARK   85  A    between atoms: _212  and  _215
REMARK   86  A    between atoms: _215  and  _216
REMARK   87  A    between atoms: _216  and  _217
REMARK   88  A    between atoms: _222  and  _224
REMARK   89  A    between atoms: _224  and  _225
REMARK   90  A    between atoms: _224  and  _227
REMARK   91  A    between atoms: _227  and  _228
REMARK   92  A    between atoms: _233  and  _234
REMARK   93  A    between atoms: _236  and  _238
REMARK   94  A    between atoms: _238  and  _239
REMARK   95  A    between atoms: _238  and  _241
REMARK   96  A    between atoms: _243  and  _245
REMARK   97  A    between atoms: _245  and  _246
REMARK   98  A    between atoms: _245  and  _248
REMARK   99  A    between atoms: _248  and  _249
REMARK  100  A    between atoms: _251  and  _253
REMARK  101  A    between atoms: _253  and  _254
REMARK  102  A    between atoms: _253  and  _256
REMARK  103  A    between atoms: _256  and  _257
REMARK  104  A    between atoms: _257  and  _258
REMARK  105  A    between atoms: _258  and  _259
REMARK  106  A    between atoms: _268  and  _270
REMARK  107  A    between atoms: _270  and  _271
REMARK  108  A    between atoms: _270  and  _273
REMARK  109  A    between atoms: _273  and  _274
REMARK  110  A    between atoms: _276  and  _278
REMARK  111  A    between atoms: _278  and  _279
REMARK  112  A    between atoms: _278  and  _281
REMARK  113  A    between atoms: _281  and  _282
REMARK  114  A    between atoms: _282  and  _283
REMARK  115  A    between atoms: _286  and  _288
REMARK  116  A    between atoms: _288  and  _289
REMARK  117  A    between atoms: _288  and  _291
REMARK  118  A    between atoms: _291  and  _292
REMARK  119  A    between atoms: _292  and  _293
REMARK  120  A    between atoms: _293  and  _294
REMARK  121  A    between atoms: _294  and  _295
REMARK  122  A    between atoms: _299  and  _301
REMARK  123  A    between atoms: _301  and  _302
REMARK  124  A    between atoms: _301  and  _304
REMARK  125  A    between atoms: _304  and  _305
REMARK  126  A    between atoms: _305  and  _306
REMARK  127  A    between atoms: _306  and  _307
REMARK  128  A    between atoms: _307  and  _308
REMARK  129  A    between atoms: _313  and  _314
REMARK  130  A    between atoms: _319  and  _321
REMARK  131  A    between atoms: _321  and  _322
REMARK  132  A    between atoms: _321  and  _324
REMARK  133  A    between atoms: _324  and  _325
REMARK  134  A    between atoms: _328  and  _330
REMARK  135  A    between atoms: _330  and  _331
REMARK  136  A    between atoms: _330  and  _333
REMARK  137  A    between atoms: _333  and  _334
REMARK  138  A    between atoms: _340  and  _342
REMARK  139  A    between atoms: _342  and  _343
REMARK  140  A    between atoms: _342  and  _345
REMARK  141  A    between atoms: _345  and  _346
REMARK  142  A    between atoms: _351  and  _352
REMARK  143  A    between atoms: _354  and  _356
REMARK  144  A    between atoms: _356  and  _357
REMARK  145  A    between atoms: _356  and  _359
REMARK  146  A    between atoms: _359  and  _360
REMARK  147  A    between atoms: _365  and  _367
REMARK  148  A    between atoms: _367  and  _368
REMARK  149  A    between atoms: _367  and  _370
REMARK  150  A    between atoms: _370  and  _371
REMARK  151  A    between atoms: _371  and  _372
REMARK  152  A    between atoms: _377  and  _379
REMARK  153  A    between atoms: _379  and  _380
REMARK  154  A    between atoms: _379  and  _382
REMARK  155  A    between atoms: _382  and  _383
REMARK  156  A    between atoms: _386  and  _388
REMARK  157  A    between atoms: _388  and  _389
REMARK  158  A    between atoms: _388  and  _391
REMARK  159  A    between atoms: _391  and  _392
REMARK  160  A    between atoms: _392  and  _393
REMARK  161  A    between atoms: _393  and  _394
REMARK  162  A    between atoms: _394  and  _395
REMARK  163  A    between atoms: _399  and  _401
REMARK  164  A    between atoms: _401  and  _402
REMARK  165  A    between atoms: _405  and  _407
REMARK  166  A    between atoms: _407  and  _408
REMARK  167  A    between atoms: _407  and  _410
REMARK  168  A    between atoms: _410  and  _411
REMARK  169  A    between atoms: _417  and  _419
REMARK  170  A    between atoms: _419  and  _420
REMARK  171  A    between atoms: _419  and  _422
REMARK  172  A    between atoms: _422  and  _423
REMARK  173  A    between atoms: _426  and  _428
REMARK  174  A    between atoms: _428  and  _429
REMARK  175  A    between atoms: _428  and  _431
REMARK  176  A    between atoms: _431  and  _432
REMARK  177  A    between atoms: _435  and  _437
REMARK  178  A    between atoms: _437  and  _438
REMARK  179  A    between atoms: _437  and  _440
REMARK  180  A    between atoms: _443  and  _445
REMARK  181  A    between atoms: _445  and  _446
REMARK  182  A    between atoms: _445  and  _448
REMARK  183  A    between atoms: _448  and  _449
REMARK  184  A    between atoms: _449  and  _450
REMARK  185  A    between atoms: _450  and  _451
REMARK  186  A    between atoms: _451  and  _452
REMARK  187  A    between atoms: _456  and  _458
REMARK  188  A    between atoms: _458  and  _459
REMARK  189  A    between atoms: _458  and  _461
REMARK  190  A    between atoms: _461  and  _462
REMARK  191  A    between atoms: _462  and  _463
REMARK  192  A    between atoms: _468  and  _470
REMARK  193  A    between atoms: _470  and  _471
REMARK  194  A    between atoms: _470  and  _473
REMARK  195  A    between atoms: _473  and  _474
REMARK  196  A    between atoms: _480  and  _482
REMARK  197  A    between atoms: _482  and  _483
REMARK  198  A    between atoms: _482  and  _485
REMARK  199  A    between atoms: _485  and  _486
REMARK  200  A    between atoms: _490  and  _491
REMARK  201  A    between atoms: _497  and  _498
REMARK  202  A    between atoms: _503  and  _505
REMARK  203  A    between atoms: _505  and  _506
REMARK  204  A    between atoms: _505  and  _508
REMARK  205  A    between atoms: _508  and  _509
REMARK  206  A    between atoms: _512  and  _514
REMARK  207  A    between atoms: _514  and  _515
REMARK  208  A    between atoms: _514  and  _517
REMARK  209  A    between atoms: _517  and  _518
REMARK  210  A    between atoms: _523  and  _525
REMARK  211  A    between atoms: _525  and  _526
REMARK  212  A    between atoms: _525  and  _528
REMARK  213  A    between atoms: _528  and  _529
REMARK  214  A    between atoms: _532  and  _534
REMARK  215  A    between atoms: _534  and  _535
REMARK  216  A    between atoms: _534  and  _537
REMARK  217  A    between atoms: _537  and  _538
REMARK  218  A    between atoms: _538  and  _539
REMARK  219  A    between atoms: _542  and  _544
REMARK  220  A    between atoms: _544  and  _545
REMARK  221  A    between atoms: _547  and  _549
REMARK  222  A    between atoms: _549  and  _550
REMARK  223  A    between atoms: _549  and  _552
REMARK  224  A    between atoms: _552  and  _553
REMARK  225  A    between atoms: _556  and  _558
REMARK  226  A    between atoms: _558  and  _559
REMARK  227  A    between atoms: _562  and  _564
REMARK  228  A    between atoms: _564  and  _565
REMARK  229  A    between atoms: _564  and  _567
REMARK  230  A    between atoms: _567  and  _568
REMARK  231  A    between atoms: _571  and  _572
REMARK  232  A    between atoms: _577  and  _579
REMARK  233  A    between atoms: _579  and  _580
REMARK  234  A    between atoms: _579  and  _582
REMARK  235  A    between atoms: _582  and  _583
REMARK  236  A    between atoms: _589  and  _591
REMARK  237  A    between atoms: _591  and  _592
REMARK  238  A    between atoms: _591  and  _594
REMARK  239  A    between atoms: _597  and  _599
REMARK  240  A    between atoms: _599  and  _600
REMARK  241  A    between atoms: _599  and  _602
REMARK  242  A    between atoms: _602  and  _603
REMARK  243  A    between atoms: _603  and  _604
REMARK  244  A    between atoms: _607  and  _609
REMARK  245  A    between atoms: _609  and  _610
REMARK  246  A    between atoms: _609  and  _612
REMARK  247  A    between atoms: _612  and  _613
REMARK                            x       y       z     vdW  Elec       q    Type
REMARK                         _______ _______ _______ _____ _____    ______ ____
ROOT
ATOM      1  O   HOH     1      61.234  38.765  22.504  0.00  0.00    +0.000 OA
ENDROOT
TORSDOF 0
REMARK  Name = ../refined-set-2016/1zhy/1zhy_pocket.pdb
REMARK  247 active torsions:
REMARK  status: ('A' for Active; 'I' for Inactive)
REMARK    1  A    between atoms: _1  and  _3
REMARK    2  A    between atoms: _3  and  _4
REMARK    3  A    between atoms: _3  and  _6
REMARK    4  A    between atoms: _6  and  _7
REMARK    5  A    between atoms: _17  and  _19
REMARK    6  A    between atoms: _19  and  _20
REMARK    7  A    between atoms: _19  and  _22
REMARK    8  A    between atoms: _22  and  _23
REMARK    9  A    between atoms: _29  and  _31
REMARK   10  A    between atoms: _31  and  _32
REMARK   11  A    between atoms: _31  and  _34
REMARK   12  A    between atoms: _34  and  _35
REMARK   13  A    between atoms: _38  and  _40
REMARK   14  A    between atoms: _40  and  _41
REMARK   15  A    between atoms: _40  and  _43
REMARK   16  A    between atoms: _43  and  _44
REMARK   17  A    between atoms: _47  and  _49
REMARK   18  A    between atoms: _49  and  _50
REMARK   19  A    between atoms: _49  and  _52
REMARK   20  A    between atoms: _52  and  _53
REMARK   21  A    between atoms: _55  and  _57
REMARK   22  A    between atoms: _57  and  _58
REMARK   23  A    between atoms: _57  and  _60
REMARK   24  A    between atoms: _60  and  _61
REMARK   25  A    between atoms: _64  and  _66
REMARK   26  A    between atoms: _66  and  _67
REMARK   27  A    between atoms: _71  and  _72
REMARK   28  A    between atoms: _77  and  _79
REMARK   29  A    between atoms: _79  and  _80
REMARK   30  A    between atoms: _79  and  _82
REMARK   31  A    between atoms: _82  and  _83
REMARK   32  A    between atoms: _86  and  _88
REMARK   33  A    between atoms: _88  and  _89
REMARK   34  A    between atoms: _88  and  _91
REMARK   35  A    between atoms: _91  and  _92
REMARK   36  A    between atoms: _95  and  _97
REMARK   37  A    between atoms: _97  and  _98
REMARK   38  A    between atoms: _97  and  _100
REMARK   39  A    between atoms: _100  and  _101
REMARK   40  A    between atoms: _103  and  _105
REMARK   41  A    between atoms: _105  and  _106
REMARK   42  A    between atoms: _105  and  _108
REMARK   43  A    between atoms: _108  and  _109
REMARK   44  A    between atoms: _112  and  _114
REMARK   45  A    between atoms: _114  and  _115
REMARK   46  A    between atoms: _114  and  _117
REMARK   47  A    between atoms: _117  and  _118
REMARK   48  A    between atoms: _118  and  _119
REMARK   49  A    between atoms: _122  and  _124
REMARK   50  A    between atoms: _124  and  _125
REMARK   51  A    between atoms: _124  and  _127
REMARK   52  A    between atoms: _127  and  _128
REMARK   53  A    between atoms: _134  and  _136
REMARK   54  A    between atoms: _136  and  _137
REMARK   55  A    between atoms: _136  and  _139
REMARK   56  A    between atoms: _139  and  _140
REMARK   57  A    between atoms: _142  and  _144
REMARK   58  A    between atoms: _144  and  _145
REMARK   59  A    between atoms: _144  and  _147
REMARK   60  A    between atoms: _147  and  _148
REMARK   61  A    between atoms: _148  and  _149
REMARK   62  A    between atoms: _154  and  _156
REMARK   63  A    between atoms: _156  and  _157
REMARK   64  A    between atoms: _156  and  _159
REMARK   65  A    between atoms: _159  and  _160
REMARK   66  A    between atoms: _165  and  _166
REMARK   67  A    between atoms: _168  and  _170
REMARK   68  A    between atoms: _170  and  _171
REMARK   69  A    between atoms: _170  and  _173
REMARK   70  A    between atoms: _173  and  _174
REMARK   71  A    between atoms: _184  and  _186
REMARK   72  A    between atoms: _186  and  _187
REMARK   73  A    between atoms: _186  and  _189
REMARK   74  A    between atoms: _189  and  _190
REMARK   75  A    between atoms: _193  and  _195
REMARK   76  A    between atoms: _195  and  _196
REMARK   77  A    between atoms: _195  and  _198
REMARK   78  A    between atoms: _198  and  _199
REMARK   79  A    between atoms: _202  and  _204
REMARK   80  A    between atoms: _204  and  _205
REMARK   81  A    between atoms: _204  and  _207
REMARK   82  A    between atoms: _207  and  _208
REMARK   83  A    between atoms: _210  and  _212
REMARK   84  A    between atoms: _212  and  _213
REMARK   85  A    between atoms: _212  and  _215
REMARK   86  A    between atoms: _215  and  _216
REMARK   87  A    between atoms: _216  and  _217
REMARK   88  A    between atoms: _222  and  _224
REMARK   89  A    between atoms: _224  and  _225
REMARK   90  A    between atoms: _224  and  _227
REMARK   91  A    between atoms: _227  and  _228
REMARK   92  A    between atoms: _233  and  _234
REMARK   93  A    between atoms: _236  and  _238
REMARK   94  A    between atoms: _238  and  _239
REMARK   95  A    between atoms: _238  and  _241
REMARK   96  A    between atoms: _243  and  _245
REMARK   97  A    between atoms: _245  and  _246
REMARK   98  A    between atoms: _245  and  _248
REMARK   99  A    between atoms: _248  and  _249
REMARK  100  A    between atoms: _251  and  _253
REMARK  101  A    between atoms: _253  and  _254
REMARK  102  A    between atoms: _253  and  _256
REMARK  103  A    between atoms: _256  and  _257
REMARK  104  A    between atoms: _257  and  _258
REMARK  105  A    between atoms: _258  and  _259
REMARK  106  A    between atoms: _268  and  _270
REMARK  107  A    between atoms: _270  and  _271
REMARK  108  A    between atoms: _270  and  _273
REMARK  109  A    between atoms: _273  and  _274
REMARK  110  A    between atoms: _276  and  _278
REMARK  111  A    between atoms: _278  and  _279
REMARK  112  A    between atoms: _278  and  _281
REMARK  113  A    between atoms: _281  and  _282
REMARK  114  A    between atoms: _282  and  _283
REMARK  115  A    between atoms: _286  and  _288
REMARK  116  A    between atoms: _288  and  _289
REMARK  117  A    between atoms: _288  and  _291
REMARK  118  A    between atoms: _291  and  _292
REMARK  119  A    between atoms: _292  and  _293
REMARK  120  A    between atoms: _293  and  _294
REMARK  121  A    between atoms: _294  and  _295
REMARK  122  A    between atoms: _299  and  _301
REMARK  123  A    between atoms: _301  and  _302
REMARK  124  A    between atoms: _301  and  _304
REMARK  125  A    between atoms: _304  and  _305
REMARK  126  A    between atoms: _305  and  _306
REMARK  127  A    between atoms: _306  and  _307
REMARK  128  A    between atoms: _307  and  _308
REMARK  129  A    between atoms: _313  and  _314
REMARK  130  A    between atoms: _319  and  _321
REMARK  131  A    between atoms: _321  and  _322
REMARK  132  A    between atoms: _321  and  _324
REMARK  133  A    between atoms: _324  and  _325
REMARK  134  A    between atoms: _328  and  _330
REMARK  135  A    between atoms: _330  and  _331
REMARK  136  A    between atoms: _330  and  _333
REMARK  137  A    between atoms: _333  and  _334
REMARK  138  A    between atoms: _340  and  _342
REMARK  139  A    between atoms: _342  and  _343
REMARK  140  A    between atoms: _342  and  _345
REMARK  141  A    between atoms: _345  and  _346
REMARK  142  A    between atoms: _351  and  _352
REMARK  143  A    between atoms: _354  and  _356
REMARK  144  A    between atoms: _356  and  _357
REMARK  145  A    between atoms: _356  and  _359
REMARK  146  A    between atoms: _359  and  _360
REMARK  147  A    between atoms: _365  and  _367
REMARK  148  A    between atoms: _367  and  _368
REMARK  149  A    between atoms: _367  and  _370
REMARK  150  A    between atoms: _370  and  _371
REMARK  151  A    between atoms: _371  and  _372
REMARK  152  A    between atoms: _377  and  _379
REMARK  153  A    between atoms: _379  and  _380
REMARK  154  A    between atoms: _379  and  _382
REMARK  155  A    between atoms: _382  and  _383
REMARK  156  A    between atoms: _386  and  _388
REMARK  157  A    between atoms: _388  and  _389
REMARK  158  A    between atoms: _388  and  _391
REMARK  159  A    between atoms: _391  and  _392
REMARK  160  A    between atoms: _392  and  _393
REMARK  161  A    between atoms: _393  and  _394
REMARK  162  A    between atoms: _394  and  _395
REMARK  163  A    between atoms: _399  and  _401
REMARK  164  A    between atoms: _401  and  _402
REMARK  165  A    between atoms: _405  and  _407
REMARK  166  A    between atoms: _407  and  _408
REMARK  167  A    between atoms: _407  and  _410
REMARK  168  A    between atoms: _410  and  _411
REMARK  169  A    between atoms: _417  and  _419
REMARK  170  A    between atoms: _419  and  _420
REMARK  171  A    between atoms: _419  and  _422
REMARK  172  A    between atoms: _422  and  _423
REMARK  173  A    between atoms: _426  and  _428
REMARK  174  A    between atoms: _428  and  _429
REMARK  175  A    between atoms: _428  and  _431
REMARK  176  A    between atoms: _431  and  _432
REMARK  177  A    between atoms: _435  and  _437
REMARK  178  A    between atoms: _437  and  _438
REMARK  179  A    between atoms: _437  and  _440
REMARK  180  A    between atoms: _443  and  _445
REMARK  181  A    between atoms: _445  and  _446
REMARK  182  A    between atoms: _445  and  _448
REMARK  183  A    between atoms: _448  and  _449
REMARK  184  A    between atoms: _449  and  _450
REMARK  185  A    between atoms: _450  and  _451
REMARK  186  A    between atoms: _451  and  _452
REMARK  187  A    between atoms: _456  and  _458
REMARK  188  A    between atoms: _458  and  _459
REMARK  189  A    between atoms: _458  and  _461
REMARK  190  A    between atoms: _461  and  _462
REMARK  191  A    between atoms: _462  and  _463
REMARK  192  A    between atoms: _468  and  _470
REMARK  193  A    between atoms: _470  and  _471
REMARK  194  A    between atoms: _470  and  _473
REMARK  195  A    between atoms: _473  and  _474
REMARK  196  A    between atoms: _480  and  _482
REMARK  197  A    between atoms: _482  and  _483
REMARK  198  A    between atoms: _482  and  _485
REMARK  199  A    between atoms: _485  and  _486
REMARK  200  A    between atoms: _490  and  _491
REMARK  201  A    between atoms: _497  and  _498
REMARK  202  A    between atoms: _503  and  _505
REMARK  203  A    between atoms: _505  and  _506
REMARK  204  A    between atoms: _505  and  _508
REMARK  205  A    between atoms: _508  and  _509
REMARK  206  A    between atoms: _512  and  _514
REMARK  207  A    between atoms: _514  and  _515
REMARK  208  A    between atoms: _514  and  _517
REMARK  209  A    between atoms: _517  and  _518
REMARK  210  A    between atoms: _523  and  _525
REMARK  211  A    between atoms: _525  and  _526
REMARK  212  A    between atoms: _525  and  _528
REMARK  213  A    between atoms: _528  and  _529
REMARK  214  A    between atoms: _532  and  _534
REMARK  215  A    between atoms: _534  and  _535
REMARK  216  A    between atoms: _534  and  _537
REMARK  217  A    between atoms: _537  and  _538
REMARK  218  A    between atoms: _538  and  _539
REMARK  219  A    between atoms: _542  and  _544
REMARK  220  A    between atoms: _544  and  _545
REMARK  221  A    between atoms: _547  and  _549
REMARK  222  A    between atoms: _549  and  _550
REMARK  223  A    between atoms: _549  and  _552
REMARK  224  A    between atoms: _552  and  _553
REMARK  225  A    between atoms: _556  and  _558
REMARK  226  A    between atoms: _558  and  _559
REMARK  227  A    between atoms: _562  and  _564
REMARK  228  A    between atoms: _564  and  _565
REMARK  229  A    between atoms: _564  and  _567
REMARK  230  A    between atoms: _567  and  _568
REMARK  231  A    between atoms: _571  and  _572
REMARK  232  A    between atoms: _577  and  _579
REMARK  233  A    between atoms: _579  and  _580
REMARK  234  A    between atoms: _579  and  _582
REMARK  235  A    between atoms: _582  and  _583
REMARK  236  A    between atoms: _589  and  _591
REMARK  237  A    between atoms: _591  and  _592
REMARK  238  A    between atoms: _591  and  _594
REMARK  239  A    between atoms: _597  and  _599
REMARK  240  A    between atoms: _599  and  _600
REMARK  241  A    between atoms: _599  and  _602
REMARK  242  A    between atoms: _602  and  _603
REMARK  243  A    between atoms: _603  and  _604
REMARK  244  A    between atoms: _607  and  _609
REMARK  245  A    between atoms: _609  and  _610
REMARK  246  A    between atoms: _609  and  _612
REMARK  247  A    between atoms: _612  and  _613
REMARK                            x       y       z     vdW  Elec       q    Type
REMARK                         _______ _______ _______ _____ _____    ______ ____
ROOT
ATOM      1  O   HOH     1      58.913  38.984  24.448  0.00  0.00    +0.000 OA
ENDROOT
TORSDOF 0
