REMARK  Name = ../refined-set-2016/2vo5/2vo5_pocket.pdb
REMARK  147 active torsions:
REMARK  status: ('A' for Active; 'I' for Inactive)
REMARK    1  A    between atoms: _1  and  _3
REMARK    2  A    between atoms: _3  and  _4
REMARK    3  A    between atoms: _3  and  _6
REMARK    4  A    between atoms: _6  and  _7
REMARK    5  A    between atoms: _10  and  _12
REMARK    6  A    between atoms: _12  and  _13
REMARK    7  A    between atoms: _12  and  _15
REMARK    8  A    between atoms: _15  and  _16
REMARK    9  A    between atoms: _21  and  _23
REMARK   10  A    between atoms: _23  and  _24
REMARK   11  A    between atoms: _23  and  _26
REMARK   12  A    between atoms: _26  and  _27
REMARK   13  A    between atoms: _37  and  _39
REMARK   14  A    between atoms: _39  and  _40
REMARK   15  A    between atoms: _39  and  _42
REMARK   16  A    between atoms: _42  and  _43
REMARK   17  A    between atoms: _46  and  _48
REMARK   18  A    between atoms: _48  and  _49
REMARK   19  A    between atoms: _48  and  _51
REMARK   20  A    between atoms: _51  and  _52
REMARK   21  A    between atoms: _62  and  _64
REMARK   22  A    between atoms: _64  and  _65
REMARK   23  A    between atoms: _67  and  _69
REMARK   24  A    between atoms: _69  and  _70
REMARK   25  A    between atoms: _69  and  _72
REMARK   26  A    between atoms: _72  and  _73
REMARK   27  A    between atoms: _78  and  _80
REMARK   28  A    between atoms: _80  and  _81
REMARK   29  A    between atoms: _80  and  _83
REMARK   30  A    between atoms: _83  and  _84
REMARK   31  A    between atoms: _87  and  _89
REMARK   32  A    between atoms: _89  and  _90
REMARK   33  A    between atoms: _89  and  _92
REMARK   34  A    between atoms: _92  and  _93
REMARK   35  A    between atoms: _93  and  _94
REMARK   36  A    between atoms: _94  and  _95
REMARK   37  A    between atoms: _104  and  _106
REMARK   38  A    between atoms: _106  and  _107
REMARK   39  A    between atoms: _106  and  _109
REMARK   40  A    between atoms: _109  and  _110
REMARK   41  A    between atoms: _120  and  _122
REMARK   42  A    between atoms: _122  and  _123
REMARK   43  A    between atoms: _125  and  _127
REMARK   44  A    between atoms: _127  and  _128
REMARK   45  A    between atoms: _130  and  _132
REMARK   46  A    between atoms: _132  and  _133
REMARK   47  A    between atoms: _132  and  _135
REMARK   48  A    between atoms: _135  and  _136
REMARK   49  A    between atoms: _139  and  _141
REMARK   50  A    between atoms: _141  and  _142
REMARK   51  A    between atoms: _145  and  _147
REMARK   52  A    between atoms: _147  and  _148
REMARK   53  A    between atoms: _147  and  _150
REMARK   54  A    between atoms: _152  and  _154
REMARK   55  A    between atoms: _154  and  _155
REMARK   56  A    between atoms: _154  and  _157
REMARK   57  A    between atoms: _157  and  _158
REMARK   58  A    between atoms: _163  and  _165
REMARK   59  A    between atoms: _165  and  _166
REMARK   60  A    between atoms: _165  and  _168
REMARK   61  A    between atoms: _168  and  _169
REMARK   62  A    between atoms: _169  and  _170
REMARK   63  A    between atoms: _173  and  _175
REMARK   64  A    between atoms: _175  and  _176
REMARK   65  A    between atoms: _175  and  _178
REMARK   66  A    between atoms: _178  and  _179
REMARK   67  A    between atoms: _179  and  _180
REMARK   68  A    between atoms: _183  and  _185
REMARK   69  A    between atoms: _185  and  _186
REMARK   70  A    between atoms: _189  and  _191
REMARK   71  A    between atoms: _191  and  _192
REMARK   72  A    between atoms: _191  and  _194
REMARK   73  A    between atoms: _194  and  _195
REMARK   74  A    between atoms: _205  and  _207
REMARK   75  A    between atoms: _207  and  _208
REMARK   76  A    between atoms: _207  and  _210
REMARK   77  A    between atoms: _210  and  _211
REMARK   78  A    between atoms: _214  and  _215
REMARK   79  A    between atoms: _220  and  _222
REMARK   80  A    between atoms: _222  and  _223
REMARK   81  A    between atoms: _222  and  _225
REMARK   82  A    between atoms: _225  and  _226
REMARK   83  A    between atoms: _236  and  _238
REMARK   84  A    between atoms: _238  and  _239
REMARK   85  A    between atoms: _238  and  _241
REMARK   86  A    between atoms: _241  and  _242
REMARK   87  A    between atoms: _247  and  _249
REMARK   88  A    between atoms: _249  and  _250
REMARK   89  A    between atoms: _249  and  _252
REMARK   90  A    between atoms: _252  and  _253
REMARK   91  A    between atoms: _263  and  _265
REMARK   92  A    between atoms: _265  and  _266
REMARK   93  A    between atoms: _265  and  _268
REMARK   94  A    between atoms: _268  and  _269
REMARK   95  A    between atoms: _279  and  _281
REMARK   96  A    between atoms: _281  and  _282
REMARK   97  A    between atoms: _281  and  _284
REMARK   98  A    between atoms: _284  and  _285
REMARK   99  A    between atoms: _290  and  _291
REMARK  100  A    between atoms: _293  and  _295
REMARK  101  A    between atoms: _295  and  _296
REMARK  102  A    between atoms: _295  and  _298
REMARK  103  A    between atoms: _298  and  _299
REMARK  104  A    between atoms: _301  and  _303
REMARK  105  A    between atoms: _303  and  _304
REMARK  106  A    between atoms: _303  and  _306
REMARK  107  A    between atoms: _306  and  _307
REMARK  108  A    between atoms: _307  and  _308
REMARK  109  A    between atoms: _311  and  _313
REMARK  110  A    between atoms: _313  and  _314
REMARK  111  A    between atoms: _313  and  _316
REMARK  112  A    between atoms: _316  and  _317
REMARK  113  A    between atoms: _323  and  _325
REMARK  114  A    between atoms: _325  and  _326
REMARK  115  A    between atoms: _328  and  _330
REMARK  116  A    between atoms: _330  and  _331
REMARK  117  A    between atoms: _330  and  _333
REMARK  118  A    between atoms: _333  and  _334
REMARK  119  A    between atoms: _334  and  _335
REMARK  120  A    between atoms: _340  and  _342
REMARK  121  A    between atoms: _342  and  _343
REMARK  122  A    between atoms: _342  and  _345
REMARK  123  A    between atoms: _345  and  _346
REMARK  124  A    between atoms: _346  and  _347
REMARK  125  A    between atoms: _347  and  _348
REMARK  126  A    between atoms: _348  and  _349
REMARK  127  A    between atoms: _353  and  _355
REMARK  128  A    between atoms: _355  and  _356
REMARK  129  A    between atoms: _355  and  _358
REMARK  130  A    between atoms: _358  and  _359
REMARK  131  A    between atoms: _361  and  _363
REMARK  132  A    between atoms: _363  and  _364
REMARK  133  A    between atoms: _363  and  _366
REMARK  134  A    between atoms: _366  and  _367
REMARK  135  A    between atoms: _370  and  _372
REMARK  136  A    between atoms: _372  and  _373
REMARK  137  A    between atoms: _372  and  _375
REMARK  138  A    between atoms: _375  and  _376
REMARK  139  A    between atoms: _386  and  _388
REMARK  140  A    between atoms: _388  and  _389
REMARK  141  A    between atoms: _388  and  _391
REMARK  142  A    between atoms: _391  and  _392
REMARK  143  A    between atoms: _392  and  _393
REMARK  144  A    between atoms: _398  and  _400
REMARK  145  A    between atoms: _400  and  _401
REMARK  146  A    between atoms: _400  and  _403
REMARK  147  A    between atoms: _403  and  _404
REMARK                            x       y       z     vdW  Elec       q    Type
REMARK                         _______ _______ _______ _____ _____    ______ ____
ROOT
ATOM      1  C   ASP A   1      37.131  52.956  -0.623  0.00  0.00    +0.239 C 
ATOM      2  N   ASN A   2      36.469  52.193   0.249  0.00  0.00    -0.298 N 
ATOM      3  H   ASN A   2      36.688  51.181   0.345  0.00  0.00    +0.150 HD
ATOM      4  O   ASP A   1      36.905  54.167  -0.734  0.00  0.00    -0.274 OA
ENDROOT
BRANCH   1   5
ATOM      5  CA  ASP A   1      38.155  52.286  -1.526  0.00  0.00    +0.156 C 
BRANCH   5   6
ATOM      6  N   ASP A   1      38.783  51.098  -0.963  0.00  0.00    -0.238 NA
ATOM      7  H   ASP A   1      38.831  50.234  -1.539  0.00  0.00    +0.142 HD
ENDBRANCH   5   6
BRANCH   5   8
ATOM      8  CB  ASP A   1      37.507  51.946  -2.871  0.00  0.00    +0.140 C 
BRANCH   8   9
ATOM      9  CG  ASP A   1      38.535  51.543  -3.934  0.00  0.00    +0.367 C 
ATOM     10  OD2 ASP A   1      39.732  51.891  -3.790  0.00  0.00    -0.246 OA
ATOM     11  OD1 ASP A   1      38.137  50.868  -4.911  0.00  0.00    -0.246 OA
ENDBRANCH   8   9
ENDBRANCH   5   8
ENDBRANCH   1   5
BRANCH   2  12
ATOM     12  CA  ASN A   2      35.424  52.818   1.070  0.00  0.00    +0.146 C 
BRANCH  12  13
ATOM     13  C   ASN A   2      35.984  53.552   2.268  0.00  0.00    +0.227 C 
ATOM     14  O   ASN A   2      35.272  54.278   2.889  0.00  0.00    -0.286 OA
ENDBRANCH  12  13
BRANCH  12  15
ATOM     15  CB  ASN A   2      34.339  51.815   1.504  0.00  0.00    +0.112 C 
BRANCH  15  16
ATOM     16  CG  ASN A   2      33.449  51.353   0.357  0.00  0.00    +0.222 C 
ATOM     17  OD1 ASN A   2      32.563  52.081  -0.093  0.00  0.00    -0.275 OA
ATOM     18  ND2 ASN A   2      33.684  50.127  -0.117  0.00  0.00    -0.329 N 
ATOM     19 HD21 ASN A   2      34.443  49.547   0.294  0.00  0.00    +0.145 HD
ATOM     20 HD22 ASN A   2      33.108  49.752  -0.897  0.00  0.00    +0.145 HD
ENDBRANCH  15  16
ENDBRANCH  12  15
ENDBRANCH   2  12
TORSDOF 8
REMARK  Name = ../refined-set-2016/2vo5/2vo5_pocket.pdb
REMARK  147 active torsions:
REMARK  status: ('A' for Active; 'I' for Inactive)
REMARK    1  A    between atoms: _1  and  _3
REMARK    2  A    between atoms: _3  and  _4
REMARK    3  A    between atoms: _3  and  _6
REMARK    4  A    between atoms: _6  and  _7
REMARK    5  A    between atoms: _10  and  _12
REMARK    6  A    between atoms: _12  and  _13
REMARK    7  A    between atoms: _12  and  _15
REMARK    8  A    between atoms: _15  and  _16
REMARK    9  A    between atoms: _21  and  _23
REMARK   10  A    between atoms: _23  and  _24
REMARK   11  A    between atoms: _23  and  _26
REMARK   12  A    between atoms: _26  and  _27
REMARK   13  A    between atoms: _37  and  _39
REMARK   14  A    between atoms: _39  and  _40
REMARK   15  A    between atoms: _39  and  _42
REMARK   16  A    between atoms: _42  and  _43
REMARK   17  A    between atoms: _46  and  _48
REMARK   18  A    between atoms: _48  and  _49
REMARK   19  A    between atoms: _48  and  _51
REMARK   20  A    between atoms: _51  and  _52
REMARK   21  A    between atoms: _62  and  _64
REMARK   22  A    between atoms: _64  and  _65
REMARK   23  A    between atoms: _67  and  _69
REMARK   24  A    between atoms: _69  and  _70
REMARK   25  A    between atoms: _69  and  _72
REMARK   26  A    between atoms: _72  and  _73
REMARK   27  A    between atoms: _78  and  _80
REMARK   28  A    between atoms: _80  and  _81
REMARK   29  A    between atoms: _80  and  _83
REMARK   30  A    between atoms: _83  and  _84
REMARK   31  A    between atoms: _87  and  _89
REMARK   32  A    between atoms: _89  and  _90
REMARK   33  A    between atoms: _89  and  _92
REMARK   34  A    between atoms: _92  and  _93
REMARK   35  A    between atoms: _93  and  _94
REMARK   36  A    between atoms: _94  and  _95
REMARK   37  A    between atoms: _104  and  _106
REMARK   38  A    between atoms: _106  and  _107
REMARK   39  A    between atoms: _106  and  _109
REMARK   40  A    between atoms: _109  and  _110
REMARK   41  A    between atoms: _120  and  _122
REMARK   42  A    between atoms: _122  and  _123
REMARK   43  A    between atoms: _125  and  _127
REMARK   44  A    between atoms: _127  and  _128
REMARK   45  A    between atoms: _130  and  _132
REMARK   46  A    between atoms: _132  and  _133
REMARK   47  A    between atoms: _132  and  _135
REMARK   48  A    between atoms: _135  and  _136
REMARK   49  A    between atoms: _139  and  _141
REMARK   50  A    between atoms: _141  and  _142
REMARK   51  A    between atoms: _145  and  _147
REMARK   52  A    between atoms: _147  and  _148
REMARK   53  A    between atoms: _147  and  _150
REMARK   54  A    between atoms: _152  and  _154
REMARK   55  A    between atoms: _154  and  _155
REMARK   56  A    between atoms: _154  and  _157
REMARK   57  A    between atoms: _157  and  _158
REMARK   58  A    between atoms: _163  and  _165
REMARK   59  A    between atoms: _165  and  _166
REMARK   60  A    between atoms: _165  and  _168
REMARK   61  A    between atoms: _168  and  _169
REMARK   62  A    between atoms: _169  and  _170
REMARK   63  A    between atoms: _173  and  _175
REMARK   64  A    between atoms: _175  and  _176
REMARK   65  A    between atoms: _175  and  _178
REMARK   66  A    between atoms: _178  and  _179
REMARK   67  A    between atoms: _179  and  _180
REMARK   68  A    between atoms: _183  and  _185
REMARK   69  A    between atoms: _185  and  _186
REMARK   70  A    between atoms: _189  and  _191
REMARK   71  A    between atoms: _191  and  _192
REMARK   72  A    between atoms: _191  and  _194
REMARK   73  A    between atoms: _194  and  _195
REMARK   74  A    between atoms: _205  and  _207
REMARK   75  A    between atoms: _207  and  _208
REMARK   76  A    between atoms: _207  and  _210
REMARK   77  A    between atoms: _210  and  _211
REMARK   78  A    between atoms: _214  and  _215
REMARK   79  A    between atoms: _220  and  _222
REMARK   80  A    between atoms: _222  and  _223
REMARK   81  A    between atoms: _222  and  _225
REMARK   82  A    between atoms: _225  and  _226
REMARK   83  A    between atoms: _236  and  _238
REMARK   84  A    between atoms: _238  and  _239
REMARK   85  A    between atoms: _238  and  _241
REMARK   86  A    between atoms: _241  and  _242
REMARK   87  A    between atoms: _247  and  _249
REMARK   88  A    between atoms: _249  and  _250
REMARK   89  A    between atoms: _249  and  _252
REMARK   90  A    between atoms: _252  and  _253
REMARK   91  A    between atoms: _263  and  _265
REMARK   92  A    between atoms: _265  and  _266
REMARK   93  A    between atoms: _265  and  _268
REMARK   94  A    between atoms: _268  and  _269
REMARK   95  A    between atoms: _279  and  _281
REMARK   96  A    between atoms: _281  and  _282
REMARK   97  A    between atoms: _281  and  _284
REMARK   98  A    between atoms: _284  and  _285
REMARK   99  A    between atoms: _290  and  _291
REMARK  100  A    between atoms: _293  and  _295
REMARK  101  A    between atoms: _295  and  _296
REMARK  102  A    between atoms: _295  and  _298
REMARK  103  A    between atoms: _298  and  _299
REMARK  104  A    between atoms: _301  and  _303
REMARK  105  A    between atoms: _303  and  _304
REMARK  106  A    between atoms: _303  and  _306
REMARK  107  A    between atoms: _306  and  _307
REMARK  108  A    between atoms: _307  and  _308
REMARK  109  A    between atoms: _311  and  _313
REMARK  110  A    between atoms: _313  and  _314
REMARK  111  A    between atoms: _313  and  _316
REMARK  112  A    between atoms: _316  and  _317
REMARK  113  A    between atoms: _323  and  _325
REMARK  114  A    between atoms: _325  and  _326
REMARK  115  A    between atoms: _328  and  _330
REMARK  116  A    between atoms: _330  and  _331
REMARK  117  A    between atoms: _330  and  _333
REMARK  118  A    between atoms: _333  and  _334
REMARK  119  A    between atoms: _334  and  _335
REMARK  120  A    between atoms: _340  and  _342
REMARK  121  A    between atoms: _342  and  _343
REMARK  122  A    between atoms: _342  and  _345
REMARK  123  A    between atoms: _345  and  _346
REMARK  124  A    between atoms: _346  and  _347
REMARK  125  A    between atoms: _347  and  _348
REMARK  126  A    between atoms: _348  and  _349
REMARK  127  A    between atoms: _353  and  _355
REMARK  128  A    between atoms: _355  and  _356
REMARK  129  A    between atoms: _355  and  _358
REMARK  130  A    between atoms: _358  and  _359
REMARK  131  A    between atoms: _361  and  _363
REMARK  132  A    between atoms: _363  and  _364
REMARK  133  A    between atoms: _363  and  _366
REMARK  134  A    between atoms: _366  and  _367
REMARK  135  A    between atoms: _370  and  _372
REMARK  136  A    between atoms: _372  and  _373
REMARK  137  A    between atoms: _372  and  _375
REMARK  138  A    between atoms: _375  and  _376
REMARK  139  A    between atoms: _386  and  _388
REMARK  140  A    between atoms: _388  and  _389
REMARK  141  A    between atoms: _388  and  _391
REMARK  142  A    between atoms: _391  and  _392
REMARK  143  A    between atoms: _392  and  _393
REMARK  144  A    between atoms: _398  and  _400
REMARK  145  A    between atoms: _400  and  _401
REMARK  146  A    between atoms: _400  and  _403
REMARK  147  A    between atoms: _403  and  _404
REMARK                            x       y       z     vdW  Elec       q    Type
REMARK                         _______ _______ _______ _____ _____    ______ ____
ROOT
ATOM      1  CA  ASP A   2      29.384  54.608  -0.487  0.00  0.00    +0.160 C 
ENDROOT
BRANCH   1   4
ATOM      2  C   TRP A   1      30.577  54.763   1.674  0.00  0.00    +0.239 C 
ATOM      3  O   TRP A   1      30.320  55.954   1.727  0.00  0.00    -0.274 OA
ATOM      4  N   ASP A   2      30.114  53.996   0.671  0.00  0.00    -0.297 N 
ATOM      5  H   ASP A   2      30.264  52.967   0.699  0.00  0.00    +0.150 HD
BRANCH   2   6
ATOM      6  CA  TRP A   1      31.423  54.129   2.805  0.00  0.00    +0.149 C 
BRANCH   6   7
ATOM      7  N   TRP A   1      32.046  55.176   3.655  0.00  0.00    -0.238 NA
ATOM      8  H   TRP A   1      31.691  56.149   3.560  0.00  0.00    +0.142 HD
ENDBRANCH   6   7
BRANCH   6   9
ATOM      9  CB  TRP A   1      30.600  53.105   3.626  0.00  0.00    +0.054 C 
BRANCH   9  10
ATOM     10  CG  TRP A   1      30.813  51.672   3.104  0.00  0.00    -0.002 A 
ATOM     11  CD2 TRP A   1      31.823  50.723   3.508  0.00  0.00    +0.013 A 
ATOM     12  CE3 TRP A   1      32.834  50.722   4.492  0.00  0.00    +0.001 A 
ATOM     13  CZ3 TRP A   1      33.626  49.596   4.631  0.00  0.00    +0.000 A 
ATOM     14  CH2 TRP A   1      33.445  48.465   3.824  0.00  0.00    +0.001 A 
ATOM     15  CZ2 TRP A   1      32.473  48.431   2.861  0.00  0.00    +0.017 A 
ATOM     16  CE2 TRP A   1      31.644  49.574   2.730  0.00  0.00    +0.056 A 
ATOM     17  NE1 TRP A   1      30.572  49.802   1.903  0.00  0.00    -0.352 N 
ATOM     18  HE1 TRP A   1      30.177  49.123   1.221  0.00  0.00    +0.166 HD
ATOM     19  CD1 TRP A   1      30.111  51.068   2.125  0.00  0.00    +0.068 A 
ENDBRANCH   9  10
ENDBRANCH   6   9
ENDBRANCH   2   6
ENDBRANCH   1   4
BRANCH   1  20
ATOM     20  C   ASP A   2      27.954  55.028  -0.172  0.00  0.00    +0.241 C 
ATOM     21  N   TRP A   3      27.609  55.014   1.112  0.00  0.00    -0.297 N 
ATOM     22  H   TRP A   3      28.271  54.619   1.810  0.00  0.00    +0.150 HD
ATOM     23  O   ASP A   2      27.183  55.388  -1.058  0.00  0.00    -0.273 OA
BRANCH  21  24
ATOM     24  CA  TRP A   3      26.340  55.533   1.563  0.00  0.00    +0.153 C 
BRANCH  24  25
ATOM     25  C   TRP A   3      26.547  56.243   2.904  0.00  0.00    +0.241 C 
ATOM     26  O   TRP A   3      25.577  56.633   3.568  0.00  0.00    -0.273 OA
ATOM     27  N   GLY A   4      27.808  56.418   3.307  0.00  0.00    -0.296 N 
ATOM     28  H   GLY A   4      28.589  56.197   2.656  0.00  0.00    +0.150 HD
BRANCH  27  29
ATOM     29  CA  GLY A   4      28.113  56.922   4.667  0.00  0.00    +0.163 C 
BRANCH  29  30
ATOM     30  C   GLY A   4      29.086  58.094   4.781  0.00  0.00    +0.229 C 
ATOM     31  O   GLY A   4      29.900  58.313   3.918  0.00  0.00    -0.286 OA
ENDBRANCH  29  30
ENDBRANCH  27  29
ENDBRANCH  24  25
BRANCH  24  32
ATOM     32  CB  TRP A   3      25.329  54.384   1.692  0.00  0.00    +0.057 C 
BRANCH  32  33
ATOM     33  CG  TRP A   3      25.937  53.083   2.246  0.00  0.00    -0.002 A 
ATOM     34  CD2 TRP A   3      26.380  52.822   3.599  0.00  0.00    +0.013 A 
ATOM     35  CE3 TRP A   3      26.421  53.587   4.780  0.00  0.00    +0.001 A 
ATOM     36  CZ3 TRP A   3      26.943  53.016   5.931  0.00  0.00    +0.000 A 
ATOM     37  CH2 TRP A   3      27.414  51.678   5.934  0.00  0.00    +0.001 A 
ATOM     38  CZ2 TRP A   3      27.371  50.905   4.802  0.00  0.00    +0.017 A 
ATOM     39  CE2 TRP A   3      26.855  51.499   3.630  0.00  0.00    +0.056 A 
ATOM     40  NE1 TRP A   3      26.702  50.978   2.371  0.00  0.00    -0.352 N 
ATOM     41  HE1 TRP A   3      26.953  50.011   2.083  0.00  0.00    +0.166 HD
ATOM     42  CD1 TRP A   3      26.164  51.938   1.553  0.00  0.00    +0.068 A 
ENDBRANCH  32  33
ENDBRANCH  24  32
ENDBRANCH  21  24
ENDBRANCH   1  20
BRANCH   1  43
ATOM     43  CB  ASP A   2      29.445  53.776  -1.781  0.00  0.00    +0.143 C 
BRANCH  43  44
ATOM     44  CG  ASP A   2      29.051  52.327  -1.589  0.00  0.00    +0.367 C 
ATOM     45  OD2 ASP A   2      28.299  51.986  -0.633  0.00  0.00    -0.246 OA
ATOM     46  OD1 ASP A   2      29.526  51.501  -2.399  0.00  0.00    -0.246 OA
ENDBRANCH  43  44
ENDBRANCH   1  43
TORSDOF 14
REMARK  Name = ../refined-set-2016/2vo5/2vo5_pocket.pdb
REMARK  147 active torsions:
REMARK  status: ('A' for Active; 'I' for Inactive)
REMARK    1  A    between atoms: _1  and  _3
REMARK    2  A    between atoms: _3  and  _4
REMARK    3  A    between atoms: _3  and  _6
REMARK    4  A    between atoms: _6  and  _7
REMARK    5  A    between atoms: _10  and  _12
REMARK    6  A    between atoms: _12  and  _13
REMARK    7  A    between atoms: _12  and  _15
REMARK    8  A    between atoms: _15  and  _16
REMARK    9  A    between atoms: _21  and  _23
REMARK   10  A    between atoms: _23  and  _24
REMARK   11  A    between atoms: _23  and  _26
REMARK   12  A    between atoms: _26  and  _27
REMARK   13  A    between atoms: _37  and  _39
REMARK   14  A    between atoms: _39  and  _40
REMARK   15  A    between atoms: _39  and  _42
REMARK   16  A    between atoms: _42  and  _43
REMARK   17  A    between atoms: _46  and  _48
REMARK   18  A    between atoms: _48  and  _49
REMARK   19  A    between atoms: _48  and  _51
REMARK   20  A    between atoms: _51  and  _52
REMARK   21  A    between atoms: _62  and  _64
REMARK   22  A    between atoms: _64  and  _65
REMARK   23  A    between atoms: _67  and  _69
REMARK   24  A    between atoms: _69  and  _70
REMARK   25  A    between atoms: _69  and  _72
REMARK   26  A    between atoms: _72  and  _73
REMARK   27  A    between atoms: _78  and  _80
REMARK   28  A    between atoms: _80  and  _81
REMARK   29  A    between atoms: _80  and  _83
REMARK   30  A    between atoms: _83  and  _84
REMARK   31  A    between atoms: _87  and  _89
REMARK   32  A    between atoms: _89  and  _90
REMARK   33  A    between atoms: _89  and  _92
REMARK   34  A    between atoms: _92  and  _93
REMARK   35  A    between atoms: _93  and  _94
REMARK   36  A    between atoms: _94  and  _95
REMARK   37  A    between atoms: _104  and  _106
REMARK   38  A    between atoms: _106  and  _107
REMARK   39  A    between atoms: _106  and  _109
REMARK   40  A    between atoms: _109  and  _110
REMARK   41  A    between atoms: _120  and  _122
REMARK   42  A    between atoms: _122  and  _123
REMARK   43  A    between atoms: _125  and  _127
REMARK   44  A    between atoms: _127  and  _128
REMARK   45  A    between atoms: _130  and  _132
REMARK   46  A    between atoms: _132  and  _133
REMARK   47  A    between atoms: _132  and  _135
REMARK   48  A    between atoms: _135  and  _136
REMARK   49  A    between atoms: _139  and  _141
REMARK   50  A    between atoms: _141  and  _142
REMARK   51  A    between atoms: _145  and  _147
REMARK   52  A    between atoms: _147  and  _148
REMARK   53  A    between atoms: _147  and  _150
REMARK   54  A    between atoms: _152  and  _154
REMARK   55  A    between atoms: _154  and  _155
REMARK   56  A    between atoms: _154  and  _157
REMARK   57  A    between atoms: _157  and  _158
REMARK   58  A    between atoms: _163  and  _165
REMARK   59  A    between atoms: _165  and  _166
REMARK   60  A    between atoms: _165  and  _168
REMARK   61  A    between atoms: _168  and  _169
REMARK   62  A    between atoms: _169  and  _170
REMARK   63  A    between atoms: _173  and  _175
REMARK   64  A    between atoms: _175  and  _176
REMARK   65  A    between atoms: _175  and  _178
REMARK   66  A    between atoms: _178  and  _179
REMARK   67  A    between atoms: _179  and  _180
REMARK   68  A    between atoms: _183  and  _185
REMARK   69  A    between atoms: _185  and  _186
REMARK   70  A    between atoms: _189  and  _191
REMARK   71  A    between atoms: _191  and  _192
REMARK   72  A    between atoms: _191  and  _194
REMARK   73  A    between atoms: _194  and  _195
REMARK   74  A    between atoms: _205  and  _207
REMARK   75  A    between atoms: _207  and  _208
REMARK   76  A    between atoms: _207  and  _210
REMARK   77  A    between atoms: _210  and  _211
REMARK   78  A    between atoms: _214  and  _215
REMARK   79  A    between atoms: _220  and  _222
REMARK   80  A    between atoms: _222  and  _223
REMARK   81  A    between atoms: _222  and  _225
REMARK   82  A    between atoms: _225  and  _226
REMARK   83  A    between atoms: _236  and  _238
REMARK   84  A    between atoms: _238  and  _239
REMARK   85  A    between atoms: _238  and  _241
REMARK   86  A    between atoms: _241  and  _242
REMARK   87  A    between atoms: _247  and  _249
REMARK   88  A    between atoms: _249  and  _250
REMARK   89  A    between atoms: _249  and  _252
REMARK   90  A    between atoms: _252  and  _253
REMARK   91  A    between atoms: _263  and  _265
REMARK   92  A    between atoms: _265  and  _266
REMARK   93  A    between atoms: _265  and  _268
REMARK   94  A    between atoms: _268  and  _269
REMARK   95  A    between atoms: _279  and  _281
REMARK   96  A    between atoms: _281  and  _282
REMARK   97  A    between atoms: _281  and  _284
REMARK   98  A    between atoms: _284  and  _285
REMARK   99  A    between atoms: _290  and  _291
REMARK  100  A    between atoms: _293  and  _295
REMARK  101  A    between atoms: _295  and  _296
REMARK  102  A    between atoms: _295  and  _298
REMARK  103  A    between atoms: _298  and  _299
REMARK  104  A    between atoms: _301  and  _303
REMARK  105  A    between atoms: _303  and  _304
REMARK  106  A    between atoms: _303  and  _306
REMARK  107  A    between atoms: _306  and  _307
REMARK  108  A    between atoms: _307  and  _308
REMARK  109  A    between atoms: _311  and  _313
REMARK  110  A    between atoms: _313  and  _314
REMARK  111  A    between atoms: _313  and  _316
REMARK  112  A    between atoms: _316  and  _317
REMARK  113  A    between atoms: _323  and  _325
REMARK  114  A    between atoms: _325  and  _326
REMARK  115  A    between atoms: _328  and  _330
REMARK  116  A    between atoms: _330  and  _331
REMARK  117  A    between atoms: _330  and  _333
REMARK  118  A    between atoms: _333  and  _334
REMARK  119  A    between atoms: _334  and  _335
REMARK  120  A    between atoms: _340  and  _342
REMARK  121  A    between atoms: _342  and  _343
REMARK  122  A    between atoms: _342  and  _345
REMARK  123  A    between atoms: _345  and  _346
REMARK  124  A    between atoms: _346  and  _347
REMARK  125  A    between atoms: _347  and  _348
REMARK  126  A    between atoms: _348  and  _349
REMARK  127  A    between atoms: _353  and  _355
REMARK  128  A    between atoms: _355  and  _356
REMARK  129  A    between atoms: _355  and  _358
REMARK  130  A    between atoms: _358  and  _359
REMARK  131  A    between atoms: _361  and  _363
REMARK  132  A    between atoms: _363  and  _364
REMARK  133  A    between atoms: _363  and  _366
REMARK  134  A    between atoms: _366  and  _367
REMARK  135  A    between atoms: _370  and  _372
REMARK  136  A    between atoms: _372  and  _373
REMARK  137  A    between atoms: _372  and  _375
REMARK  138  A    between atoms: _375  and  _376
REMARK  139  A    between atoms: _386  and  _388
REMARK  140  A    between atoms: _388  and  _389
REMARK  141  A    between atoms: _388  and  _391
REMARK  142  A    between atoms: _391  and  _392
REMARK  143  A    between atoms: _392  and  _393
REMARK  144  A    between atoms: _398  and  _400
REMARK  145  A    between atoms: _400  and  _401
REMARK  146  A    between atoms: _400  and  _403
REMARK  147  A    between atoms: _403  and  _404
REMARK                            x       y       z     vdW  Elec       q    Type
REMARK                         _______ _______ _______ _____ _____    ______ ____
ROOT
ATOM      1  CB  ASN A   1      21.854  44.026   3.345  0.00  0.00    +0.110 C 
ENDROOT
BRANCH   1   2
ATOM      2  CG  ASN A   1      22.208  42.717   2.564  0.00  0.00    +0.221 C 
ATOM      3  OD1 ASN A   1      23.126  41.994   2.936  0.00  0.00    -0.275 OA
ATOM      4  ND2 ASN A   1      21.497  42.444   1.479  0.00  0.00    -0.329 N 
ATOM      5 HD21 ASN A   1      20.725  43.078   1.190  0.00  0.00    +0.145 HD
ATOM      6 HD22 ASN A   1      21.712  41.596   0.916  0.00  0.00    +0.145 HD
ENDBRANCH   1   2
BRANCH   1   7
ATOM      7  CA  ASN A   1      20.743  43.826   4.397  0.00  0.00    +0.142 C 
BRANCH   7   8
ATOM      8  N   ASN A   1      19.463  43.609   3.750  0.00  0.00    -0.239 NA
ATOM      9  H   ASN A   1      19.290  44.038   2.818  0.00  0.00    +0.142 HD
ENDBRANCH   7   8
BRANCH   7  10
ATOM     10  C   ASN A   1      20.663  45.000   5.414  0.00  0.00    +0.225 C 
ATOM     11  O   ASN A   1      20.078  46.059   5.136  0.00  0.00    -0.287 OA
ENDBRANCH   7  10
ENDBRANCH   1   7
TORSDOF 4
REMARK  Name = ../refined-set-2016/2vo5/2vo5_pocket.pdb
REMARK  147 active torsions:
REMARK  status: ('A' for Active; 'I' for Inactive)
REMARK    1  A    between atoms: _1  and  _3
REMARK    2  A    between atoms: _3  and  _4
REMARK    3  A    between atoms: _3  and  _6
REMARK    4  A    between atoms: _6  and  _7
REMARK    5  A    between atoms: _10  and  _12
REMARK    6  A    between atoms: _12  and  _13
REMARK    7  A    between atoms: _12  and  _15
REMARK    8  A    between atoms: _15  and  _16
REMARK    9  A    between atoms: _21  and  _23
REMARK   10  A    between atoms: _23  and  _24
REMARK   11  A    between atoms: _23  and  _26
REMARK   12  A    between atoms: _26  and  _27
REMARK   13  A    between atoms: _37  and  _39
REMARK   14  A    between atoms: _39  and  _40
REMARK   15  A    between atoms: _39  and  _42
REMARK   16  A    between atoms: _42  and  _43
REMARK   17  A    between atoms: _46  and  _48
REMARK   18  A    between atoms: _48  and  _49
REMARK   19  A    between atoms: _48  and  _51
REMARK   20  A    between atoms: _51  and  _52
REMARK   21  A    between atoms: _62  and  _64
REMARK   22  A    between atoms: _64  and  _65
REMARK   23  A    between atoms: _67  and  _69
REMARK   24  A    between atoms: _69  and  _70
REMARK   25  A    between atoms: _69  and  _72
REMARK   26  A    between atoms: _72  and  _73
REMARK   27  A    between atoms: _78  and  _80
REMARK   28  A    between atoms: _80  and  _81
REMARK   29  A    between atoms: _80  and  _83
REMARK   30  A    between atoms: _83  and  _84
REMARK   31  A    between atoms: _87  and  _89
REMARK   32  A    between atoms: _89  and  _90
REMARK   33  A    between atoms: _89  and  _92
REMARK   34  A    between atoms: _92  and  _93
REMARK   35  A    between atoms: _93  and  _94
REMARK   36  A    between atoms: _94  and  _95
REMARK   37  A    between atoms: _104  and  _106
REMARK   38  A    between atoms: _106  and  _107
REMARK   39  A    between atoms: _106  and  _109
REMARK   40  A    between atoms: _109  and  _110
REMARK   41  A    between atoms: _120  and  _122
REMARK   42  A    between atoms: _122  and  _123
REMARK   43  A    between atoms: _125  and  _127
REMARK   44  A    between atoms: _127  and  _128
REMARK   45  A    between atoms: _130  and  _132
REMARK   46  A    between atoms: _132  and  _133
REMARK   47  A    between atoms: _132  and  _135
REMARK   48  A    between atoms: _135  and  _136
REMARK   49  A    between atoms: _139  and  _141
REMARK   50  A    between atoms: _141  and  _142
REMARK   51  A    between atoms: _145  and  _147
REMARK   52  A    between atoms: _147  and  _148
REMARK   53  A    between atoms: _147  and  _150
REMARK   54  A    between atoms: _152  and  _154
REMARK   55  A    between atoms: _154  and  _155
REMARK   56  A    between atoms: _154  and  _157
REMARK   57  A    between atoms: _157  and  _158
REMARK   58  A    between atoms: _163  and  _165
REMARK   59  A    between atoms: _165  and  _166
REMARK   60  A    between atoms: _165  and  _168
REMARK   61  A    between atoms: _168  and  _169
REMARK   62  A    between atoms: _169  and  _170
REMARK   63  A    between atoms: _173  and  _175
REMARK   64  A    between atoms: _175  and  _176
REMARK   65  A    between atoms: _175  and  _178
REMARK   66  A    between atoms: _178  and  _179
REMARK   67  A    between atoms: _179  and  _180
REMARK   68  A    between atoms: _183  and  _185
REMARK   69  A    between atoms: _185  and  _186
REMARK   70  A    between atoms: _189  and  _191
REMARK   71  A    between atoms: _191  and  _192
REMARK   72  A    between atoms: _191  and  _194
REMARK   73  A    between atoms: _194  and  _195
REMARK   74  A    between atoms: _205  and  _207
REMARK   75  A    between atoms: _207  and  _208
REMARK   76  A    between atoms: _207  and  _210
REMARK   77  A    between atoms: _210  and  _211
REMARK   78  A    between atoms: _214  and  _215
REMARK   79  A    between atoms: _220  and  _222
REMARK   80  A    between atoms: _222  and  _223
REMARK   81  A    between atoms: _222  and  _225
REMARK   82  A    between atoms: _225  and  _226
REMARK   83  A    between atoms: _236  and  _238
REMARK   84  A    between atoms: _238  and  _239
REMARK   85  A    between atoms: _238  and  _241
REMARK   86  A    between atoms: _241  and  _242
REMARK   87  A    between atoms: _247  and  _249
REMARK   88  A    between atoms: _249  and  _250
REMARK   89  A    between atoms: _249  and  _252
REMARK   90  A    between atoms: _252  and  _253
REMARK   91  A    between atoms: _263  and  _265
REMARK   92  A    between atoms: _265  and  _266
REMARK   93  A    between atoms: _265  and  _268
REMARK   94  A    between atoms: _268  and  _269
REMARK   95  A    between atoms: _279  and  _281
REMARK   96  A    between atoms: _281  and  _282
REMARK   97  A    between atoms: _281  and  _284
REMARK   98  A    between atoms: _284  and  _285
REMARK   99  A    between atoms: _290  and  _291
REMARK  100  A    between atoms: _293  and  _295
REMARK  101  A    between atoms: _295  and  _296
REMARK  102  A    between atoms: _295  and  _298
REMARK  103  A    between atoms: _298  and  _299
REMARK  104  A    between atoms: _301  and  _303
REMARK  105  A    between atoms: _303  and  _304
REMARK  106  A    between atoms: _303  and  _306
REMARK  107  A    between atoms: _306  and  _307
REMARK  108  A    between atoms: _307  and  _308
REMARK  109  A    between atoms: _311  and  _313
REMARK  110  A    between atoms: _313  and  _314
REMARK  111  A    between atoms: _313  and  _316
REMARK  112  A    between atoms: _316  and  _317
REMARK  113  A    between atoms: _323  and  _325
REMARK  114  A    between atoms: _325  and  _326
REMARK  115  A    between atoms: _328  and  _330
REMARK  116  A    between atoms: _330  and  _331
REMARK  117  A    between atoms: _330  and  _333
REMARK  118  A    between atoms: _333  and  _334
REMARK  119  A    between atoms: _334  and  _335
REMARK  120  A    between atoms: _340  and  _342
REMARK  121  A    between atoms: _342  and  _343
REMARK  122  A    between atoms: _342  and  _345
REMARK  123  A    between atoms: _345  and  _346
REMARK  124  A    between atoms: _346  and  _347
REMARK  125  A    between atoms: _347  and  _348
REMARK  126  A    between atoms: _348  and  _349
REMARK  127  A    between atoms: _353  and  _355
REMARK  128  A    between atoms: _355  and  _356
REMARK  129  A    between atoms: _355  and  _358
REMARK  130  A    between atoms: _358  and  _359
REMARK  131  A    between atoms: _361  and  _363
REMARK  132  A    between atoms: _363  and  _364
REMARK  133  A    between atoms: _363  and  _366
REMARK  134  A    between atoms: _366  and  _367
REMARK  135  A    between atoms: _370  and  _372
REMARK  136  A    between atoms: _372  and  _373
REMARK  137  A    between atoms: _372  and  _375
REMARK  138  A    between atoms: _375  and  _376
REMARK  139  A    between atoms: _386  and  _388
REMARK  140  A    between atoms: _388  and  _389
REMARK  141  A    between atoms: _388  and  _391
REMARK  142  A    between atoms: _391  and  _392
REMARK  143  A    between atoms: _392  and  _393
REMARK  144  A    between atoms: _398  and  _400
REMARK  145  A    between atoms: _400  and  _401
REMARK  146  A    between atoms: _400  and  _403
REMARK  147  A    between atoms: _403  and  _404
REMARK                            x       y       z     vdW  Elec       q    Type
REMARK                         _______ _______ _______ _____ _____    ______ ____
ROOT
ATOM      1  CA  ILE A   1      23.837  48.548   8.241  0.00  0.00    +0.133 C 
ENDROOT
BRANCH   1   2
ATOM      2  N   ILE A   1      22.604  47.758   7.926  0.00  0.00    -0.239 NA
ATOM      3  H   ILE A   1      21.734  48.287   7.716  0.00  0.00    +0.142 HD
ENDBRANCH   1   2
BRANCH   1   4
ATOM      4  C   ILE A   1      23.691  49.260   9.602  0.00  0.00    +0.224 C 
ATOM      5  O   ILE A   1      22.605  49.266  10.175  0.00  0.00    -0.287 OA
ENDBRANCH   1   4
BRANCH   1   6
ATOM      6  CB  ILE A   1      24.186  49.587   7.098  0.00  0.00    +0.023 C 
ATOM      7  CG2 ILE A   1      24.459  48.872   5.764  0.00  0.00    +0.002 C 
BRANCH   6   8
ATOM      8  CG1 ILE A   1      23.084  50.633   6.954  0.00  0.00    +0.002 C 
ATOM      9  CD1 ILE A   1      23.562  51.957   6.529  0.00  0.00    +0.000 C 
ENDBRANCH   6   8
ENDBRANCH   1   6
TORSDOF 4
REMARK  Name = ../refined-set-2016/2vo5/2vo5_pocket.pdb
REMARK  147 active torsions:
REMARK  status: ('A' for Active; 'I' for Inactive)
REMARK    1  A    between atoms: _1  and  _3
REMARK    2  A    between atoms: _3  and  _4
REMARK    3  A    between atoms: _3  and  _6
REMARK    4  A    between atoms: _6  and  _7
REMARK    5  A    between atoms: _10  and  _12
REMARK    6  A    between atoms: _12  and  _13
REMARK    7  A    between atoms: _12  and  _15
REMARK    8  A    between atoms: _15  and  _16
REMARK    9  A    between atoms: _21  and  _23
REMARK   10  A    between atoms: _23  and  _24
REMARK   11  A    between atoms: _23  and  _26
REMARK   12  A    between atoms: _26  and  _27
REMARK   13  A    between atoms: _37  and  _39
REMARK   14  A    between atoms: _39  and  _40
REMARK   15  A    between atoms: _39  and  _42
REMARK   16  A    between atoms: _42  and  _43
REMARK   17  A    between atoms: _46  and  _48
REMARK   18  A    between atoms: _48  and  _49
REMARK   19  A    between atoms: _48  and  _51
REMARK   20  A    between atoms: _51  and  _52
REMARK   21  A    between atoms: _62  and  _64
REMARK   22  A    between atoms: _64  and  _65
REMARK   23  A    between atoms: _67  and  _69
REMARK   24  A    between atoms: _69  and  _70
REMARK   25  A    between atoms: _69  and  _72
REMARK   26  A    between atoms: _72  and  _73
REMARK   27  A    between atoms: _78  and  _80
REMARK   28  A    between atoms: _80  and  _81
REMARK   29  A    between atoms: _80  and  _83
REMARK   30  A    between atoms: _83  and  _84
REMARK   31  A    between atoms: _87  and  _89
REMARK   32  A    between atoms: _89  and  _90
REMARK   33  A    between atoms: _89  and  _92
REMARK   34  A    between atoms: _92  and  _93
REMARK   35  A    between atoms: _93  and  _94
REMARK   36  A    between atoms: _94  and  _95
REMARK   37  A    between atoms: _104  and  _106
REMARK   38  A    between atoms: _106  and  _107
REMARK   39  A    between atoms: _106  and  _109
REMARK   40  A    between atoms: _109  and  _110
REMARK   41  A    between atoms: _120  and  _122
REMARK   42  A    between atoms: _122  and  _123
REMARK   43  A    between atoms: _125  and  _127
REMARK   44  A    between atoms: _127  and  _128
REMARK   45  A    between atoms: _130  and  _132
REMARK   46  A    between atoms: _132  and  _133
REMARK   47  A    between atoms: _132  and  _135
REMARK   48  A    between atoms: _135  and  _136
REMARK   49  A    between atoms: _139  and  _141
REMARK   50  A    between atoms: _141  and  _142
REMARK   51  A    between atoms: _145  and  _147
REMARK   52  A    between atoms: _147  and  _148
REMARK   53  A    between atoms: _147  and  _150
REMARK   54  A    between atoms: _152  and  _154
REMARK   55  A    between atoms: _154  and  _155
REMARK   56  A    between atoms: _154  and  _157
REMARK   57  A    between atoms: _157  and  _158
REMARK   58  A    between atoms: _163  and  _165
REMARK   59  A    between atoms: _165  and  _166
REMARK   60  A    between atoms: _165  and  _168
REMARK   61  A    between atoms: _168  and  _169
REMARK   62  A    between atoms: _169  and  _170
REMARK   63  A    between atoms: _173  and  _175
REMARK   64  A    between atoms: _175  and  _176
REMARK   65  A    between atoms: _175  and  _178
REMARK   66  A    between atoms: _178  and  _179
REMARK   67  A    between atoms: _179  and  _180
REMARK   68  A    between atoms: _183  and  _185
REMARK   69  A    between atoms: _185  and  _186
REMARK   70  A    between atoms: _189  and  _191
REMARK   71  A    between atoms: _191  and  _192
REMARK   72  A    between atoms: _191  and  _194
REMARK   73  A    between atoms: _194  and  _195
REMARK   74  A    between atoms: _205  and  _207
REMARK   75  A    between atoms: _207  and  _208
REMARK   76  A    between atoms: _207  and  _210
REMARK   77  A    between atoms: _210  and  _211
REMARK   78  A    between atoms: _214  and  _215
REMARK   79  A    between atoms: _220  and  _222
REMARK   80  A    between atoms: _222  and  _223
REMARK   81  A    between atoms: _222  and  _225
REMARK   82  A    between atoms: _225  and  _226
REMARK   83  A    between atoms: _236  and  _238
REMARK   84  A    between atoms: _238  and  _239
REMARK   85  A    between atoms: _238  and  _241
REMARK   86  A    between atoms: _241  and  _242
REMARK   87  A    between atoms: _247  and  _249
REMARK   88  A    between atoms: _249  and  _250
REMARK   89  A    between atoms: _249  and  _252
REMARK   90  A    between atoms: _252  and  _253
REMARK   91  A    between atoms: _263  and  _265
REMARK   92  A    between atoms: _265  and  _266
REMARK   93  A    between atoms: _265  and  _268
REMARK   94  A    between atoms: _268  and  _269
REMARK   95  A    between atoms: _279  and  _281
REMARK   96  A    between atoms: _281  and  _282
REMARK   97  A    between atoms: _281  and  _284
REMARK   98  A    between atoms: _284  and  _285
REMARK   99  A    between atoms: _290  and  _291
REMARK  100  A    between atoms: _293  and  _295
REMARK  101  A    between atoms: _295  and  _296
REMARK  102  A    between atoms: _295  and  _298
REMARK  103  A    between atoms: _298  and  _299
REMARK  104  A    between atoms: _301  and  _303
REMARK  105  A    between atoms: _303  and  _304
REMARK  106  A    between atoms: _303  and  _306
REMARK  107  A    between atoms: _306  and  _307
REMARK  108  A    between atoms: _307  and  _308
REMARK  109  A    between atoms: _311  and  _313
REMARK  110  A    between atoms: _313  and  _314
REMARK  111  A    between atoms: _313  and  _316
REMARK  112  A    between atoms: _316  and  _317
REMARK  113  A    between atoms: _323  and  _325
REMARK  114  A    between atoms: _325  and  _326
REMARK  115  A    between atoms: _328  and  _330
REMARK  116  A    between atoms: _330  and  _331
REMARK  117  A    between atoms: _330  and  _333
REMARK  118  A    between atoms: _333  and  _334
REMARK  119  A    between atoms: _334  and  _335
REMARK  120  A    between atoms: _340  and  _342
REMARK  121  A    between atoms: _342  and  _343
REMARK  122  A    between atoms: _342  and  _345
REMARK  123  A    between atoms: _345  and  _346
REMARK  124  A    between atoms: _346  and  _347
REMARK  125  A    between atoms: _347  and  _348
REMARK  126  A    between atoms: _348  and  _349
REMARK  127  A    between atoms: _353  and  _355
REMARK  128  A    between atoms: _355  and  _356
REMARK  129  A    between atoms: _355  and  _358
REMARK  130  A    between atoms: _358  and  _359
REMARK  131  A    between atoms: _361  and  _363
REMARK  132  A    between atoms: _363  and  _364
REMARK  133  A    between atoms: _363  and  _366
REMARK  134  A    between atoms: _366  and  _367
REMARK  135  A    between atoms: _370  and  _372
REMARK  136  A    between atoms: _372  and  _373
REMARK  137  A    between atoms: _372  and  _375
REMARK  138  A    between atoms: _375  and  _376
REMARK  139  A    between atoms: _386  and  _388
REMARK  140  A    between atoms: _388  and  _389
REMARK  141  A    between atoms: _388  and  _391
REMARK  142  A    between atoms: _391  and  _392
REMARK  143  A    between atoms: _392  and  _393
REMARK  144  A    between atoms: _398  and  _400
REMARK  145  A    between atoms: _400  and  _401
REMARK  146  A    between atoms: _400  and  _403
REMARK  147  A    between atoms: _403  and  _404
REMARK                            x       y       z     vdW  Elec       q    Type
REMARK                         _______ _______ _______ _____ _____    ______ ____
ROOT
ATOM      1  NE  ARG A   1      25.660  39.604   3.894  0.00  0.00    -0.265 N 
ATOM      2  HE  ARG A   1      26.238  39.149   4.629  0.00  0.00    +0.259 HD
ATOM      3  CZ  ARG A   1      26.297  40.259   2.926  0.00  0.00    +0.342 C 
ATOM      4  NH2 ARG A   1      27.631  40.350   2.939  0.00  0.00    -0.292 N 
ATOM      5 HH21 ARG A   1      28.175  39.908   3.707  0.00  0.00    +0.255 HD
ATOM      6 HH22 ARG A   1      28.125  40.863   2.181  0.00  0.00    +0.255 HD
ATOM      7  NH1 ARG A   1      25.603  40.812   1.933  0.00  0.00    -0.292 N 
ATOM      8 HH11 ARG A   1      24.566  40.731   1.915  0.00  0.00    +0.255 HD
ATOM      9 HH12 ARG A   1      26.098  41.324   1.175  0.00  0.00    +0.255 HD
ENDROOT
BRANCH   1  10
ATOM     10  CD  ARG A   1      24.207  39.477   4.001  0.00  0.00    +0.174 C 
BRANCH  10  11
ATOM     11  CG  ARG A   1      23.759  39.824   5.434  0.00  0.00    +0.045 C 
BRANCH  11  12
ATOM     12  CB  ARG A   1      22.251  39.976   5.577  0.00  0.00    +0.029 C 
BRANCH  12  13
ATOM     13  CA  ARG A   1      21.771  40.100   7.052  0.00  0.00    +0.133 C 
BRANCH  13  14
ATOM     14  N   ARG A   1      20.331  40.269   7.099  0.00  0.00    -0.239 NA
ATOM     15  H   ARG A   1      19.875  40.883   6.394  0.00  0.00    +0.142 HD
ENDBRANCH  13  14
BRANCH  13  16
ATOM     16  C   ARG A   1      22.430  41.292   7.772  0.00  0.00    +0.224 C 
ATOM     17  O   ARG A   1      22.230  42.487   7.376  0.00  0.00    -0.287 OA
ENDBRANCH  13  16
ENDBRANCH  12  13
ENDBRANCH  11  12
ENDBRANCH  10  11
ENDBRANCH   1  10
TORSDOF 6
REMARK  Name = ../refined-set-2016/2vo5/2vo5_pocket.pdb
REMARK  147 active torsions:
REMARK  status: ('A' for Active; 'I' for Inactive)
REMARK    1  A    between atoms: _1  and  _3
REMARK    2  A    between atoms: _3  and  _4
REMARK    3  A    between atoms: _3  and  _6
REMARK    4  A    between atoms: _6  and  _7
REMARK    5  A    between atoms: _10  and  _12
REMARK    6  A    between atoms: _12  and  _13
REMARK    7  A    between atoms: _12  and  _15
REMARK    8  A    between atoms: _15  and  _16
REMARK    9  A    between atoms: _21  and  _23
REMARK   10  A    between atoms: _23  and  _24
REMARK   11  A    between atoms: _23  and  _26
REMARK   12  A    between atoms: _26  and  _27
REMARK   13  A    between atoms: _37  and  _39
REMARK   14  A    between atoms: _39  and  _40
REMARK   15  A    between atoms: _39  and  _42
REMARK   16  A    between atoms: _42  and  _43
REMARK   17  A    between atoms: _46  and  _48
REMARK   18  A    between atoms: _48  and  _49
REMARK   19  A    between atoms: _48  and  _51
REMARK   20  A    between atoms: _51  and  _52
REMARK   21  A    between atoms: _62  and  _64
REMARK   22  A    between atoms: _64  and  _65
REMARK   23  A    between atoms: _67  and  _69
REMARK   24  A    between atoms: _69  and  _70
REMARK   25  A    between atoms: _69  and  _72
REMARK   26  A    between atoms: _72  and  _73
REMARK   27  A    between atoms: _78  and  _80
REMARK   28  A    between atoms: _80  and  _81
REMARK   29  A    between atoms: _80  and  _83
REMARK   30  A    between atoms: _83  and  _84
REMARK   31  A    between atoms: _87  and  _89
REMARK   32  A    between atoms: _89  and  _90
REMARK   33  A    between atoms: _89  and  _92
REMARK   34  A    between atoms: _92  and  _93
REMARK   35  A    between atoms: _93  and  _94
REMARK   36  A    between atoms: _94  and  _95
REMARK   37  A    between atoms: _104  and  _106
REMARK   38  A    between atoms: _106  and  _107
REMARK   39  A    between atoms: _106  and  _109
REMARK   40  A    between atoms: _109  and  _110
REMARK   41  A    between atoms: _120  and  _122
REMARK   42  A    between atoms: _122  and  _123
REMARK   43  A    between atoms: _125  and  _127
REMARK   44  A    between atoms: _127  and  _128
REMARK   45  A    between atoms: _130  and  _132
REMARK   46  A    between atoms: _132  and  _133
REMARK   47  A    between atoms: _132  and  _135
REMARK   48  A    between atoms: _135  and  _136
REMARK   49  A    between atoms: _139  and  _141
REMARK   50  A    between atoms: _141  and  _142
REMARK   51  A    between atoms: _145  and  _147
REMARK   52  A    between atoms: _147  and  _148
REMARK   53  A    between atoms: _147  and  _150
REMARK   54  A    between atoms: _152  and  _154
REMARK   55  A    between atoms: _154  and  _155
REMARK   56  A    between atoms: _154  and  _157
REMARK   57  A    between atoms: _157  and  _158
REMARK   58  A    between atoms: _163  and  _165
REMARK   59  A    between atoms: _165  and  _166
REMARK   60  A    between atoms: _165  and  _168
REMARK   61  A    between atoms: _168  and  _169
REMARK   62  A    between atoms: _169  and  _170
REMARK   63  A    between atoms: _173  and  _175
REMARK   64  A    between atoms: _175  and  _176
REMARK   65  A    between atoms: _175  and  _178
REMARK   66  A    between atoms: _178  and  _179
REMARK   67  A    between atoms: _179  and  _180
REMARK   68  A    between atoms: _183  and  _185
REMARK   69  A    between atoms: _185  and  _186
REMARK   70  A    between atoms: _189  and  _191
REMARK   71  A    between atoms: _191  and  _192
REMARK   72  A    between atoms: _191  and  _194
REMARK   73  A    between atoms: _194  and  _195
REMARK   74  A    between atoms: _205  and  _207
REMARK   75  A    between atoms: _207  and  _208
REMARK   76  A    between atoms: _207  and  _210
REMARK   77  A    between atoms: _210  and  _211
REMARK   78  A    between atoms: _214  and  _215
REMARK   79  A    between atoms: _220  and  _222
REMARK   80  A    between atoms: _222  and  _223
REMARK   81  A    between atoms: _222  and  _225
REMARK   82  A    between atoms: _225  and  _226
REMARK   83  A    between atoms: _236  and  _238
REMARK   84  A    between atoms: _238  and  _239
REMARK   85  A    between atoms: _238  and  _241
REMARK   86  A    between atoms: _241  and  _242
REMARK   87  A    between atoms: _247  and  _249
REMARK   88  A    between atoms: _249  and  _250
REMARK   89  A    between atoms: _249  and  _252
REMARK   90  A    between atoms: _252  and  _253
REMARK   91  A    between atoms: _263  and  _265
REMARK   92  A    between atoms: _265  and  _266
REMARK   93  A    between atoms: _265  and  _268
REMARK   94  A    between atoms: _268  and  _269
REMARK   95  A    between atoms: _279  and  _281
REMARK   96  A    between atoms: _281  and  _282
REMARK   97  A    between atoms: _281  and  _284
REMARK   98  A    between atoms: _284  and  _285
REMARK   99  A    between atoms: _290  and  _291
REMARK  100  A    between atoms: _293  and  _295
REMARK  101  A    between atoms: _295  and  _296
REMARK  102  A    between atoms: _295  and  _298
REMARK  103  A    between atoms: _298  and  _299
REMARK  104  A    between atoms: _301  and  _303
REMARK  105  A    between atoms: _303  and  _304
REMARK  106  A    between atoms: _303  and  _306
REMARK  107  A    between atoms: _306  and  _307
REMARK  108  A    between atoms: _307  and  _308
REMARK  109  A    between atoms: _311  and  _313
REMARK  110  A    between atoms: _313  and  _314
REMARK  111  A    between atoms: _313  and  _316
REMARK  112  A    between atoms: _316  and  _317
REMARK  113  A    between atoms: _323  and  _325
REMARK  114  A    between atoms: _325  and  _326
REMARK  115  A    between atoms: _328  and  _330
REMARK  116  A    between atoms: _330  and  _331
REMARK  117  A    between atoms: _330  and  _333
REMARK  118  A    between atoms: _333  and  _334
REMARK  119  A    between atoms: _334  and  _335
REMARK  120  A    between atoms: _340  and  _342
REMARK  121  A    between atoms: _342  and  _343
REMARK  122  A    between atoms: _342  and  _345
REMARK  123  A    between atoms: _345  and  _346
REMARK  124  A    between atoms: _346  and  _347
REMARK  125  A    between atoms: _347  and  _348
REMARK  126  A    between atoms: _348  and  _349
REMARK  127  A    between atoms: _353  and  _355
REMARK  128  A    between atoms: _355  and  _356
REMARK  129  A    between atoms: _355  and  _358
REMARK  130  A    between atoms: _358  and  _359
REMARK  131  A    between atoms: _361  and  _363
REMARK  132  A    between atoms: _363  and  _364
REMARK  133  A    between atoms: _363  and  _366
REMARK  134  A    between atoms: _366  and  _367
REMARK  135  A    between atoms: _370  and  _372
REMARK  136  A    between atoms: _372  and  _373
REMARK  137  A    between atoms: _372  and  _375
REMARK  138  A    between atoms: _375  and  _376
REMARK  139  A    between atoms: _386  and  _388
REMARK  140  A    between atoms: _388  and  _389
REMARK  141  A    between atoms: _388  and  _391
REMARK  142  A    between atoms: _391  and  _392
REMARK  143  A    between atoms: _392  and  _393
REMARK  144  A    between atoms: _398  and  _400
REMARK  145  A    between atoms: _400  and  _401
REMARK  146  A    between atoms: _400  and  _403
REMARK  147  A    between atoms: _403  and  _404
REMARK                            x       y       z     vdW  Elec       q    Type
REMARK                         _______ _______ _______ _____ _____    ______ ____
ROOT
ATOM      1  CA  TRP A   1      26.586  42.930   6.844  0.00  0.00    +0.149 C 
ENDROOT
BRANCH   1   2
ATOM      2  C   TRP A   1      27.903  43.341   7.466  0.00  0.00    +0.239 C 
ATOM      3  O   TRP A   1      27.932  44.068   8.472  0.00  0.00    -0.274 OA
ATOM      4  N   GLY A   2      28.991  42.829   6.895  0.00  0.00    -0.296 N 
ATOM      5  H   GLY A   2      28.892  42.361   5.971  0.00  0.00    +0.150 HD
BRANCH   4   6
ATOM      6  CA  GLY A   2      30.334  42.894   7.512  0.00  0.00    +0.176 C 
BRANCH   6   7
ATOM      7  C   GLY A   2      31.135  44.183   7.631  0.00  0.00    +0.243 C 
ATOM      8  O   GLY A   2      32.235  44.158   8.150  0.00  0.00    -0.273 OA
ATOM      9  N   GLY A   3      30.627  45.302   7.138  0.00  0.00    -0.296 N 
ATOM     10  H   GLY A   3      29.770  45.256   6.550  0.00  0.00    +0.150 HD
BRANCH   9  11
ATOM     11  CA  GLY A   3      31.243  46.597   7.401  0.00  0.00    +0.163 C 
BRANCH  11  12
ATOM     12  C   GLY A   3      30.677  47.375   8.599  0.00  0.00    +0.229 C 
ATOM     13  O   GLY A   3      30.997  48.525   8.777  0.00  0.00    -0.286 OA
ENDBRANCH  11  12
ENDBRANCH   9  11
ENDBRANCH   6   7
ENDBRANCH   4   6
ENDBRANCH   1   2
BRANCH   1  14
ATOM     14  N   TRP A   1      25.513  42.853   7.830  0.00  0.00    -0.238 NA
ATOM     15  H   TRP A   1      24.792  43.602   7.809  0.00  0.00    +0.142 HD
ENDBRANCH   1  14
BRANCH   1  16
ATOM     16  CB  TRP A   1      26.127  43.921   5.765  0.00  0.00    +0.054 C 
BRANCH  16  17
ATOM     17  CG  TRP A   1      27.131  44.560   4.927  0.00  0.00    -0.002 A 
ATOM     18  CD2 TRP A   1      27.759  45.843   5.160  0.00  0.00    +0.013 A 
ATOM     19  CE3 TRP A   1      27.713  46.785   6.224  0.00  0.00    +0.001 A 
ATOM     20  CZ3 TRP A   1      28.480  47.887   6.149  0.00  0.00    +0.000 A 
ATOM     21  CH2 TRP A   1      29.322  48.127   5.013  0.00  0.00    +0.001 A 
ATOM     22  CZ2 TRP A   1      29.388  47.230   3.970  0.00  0.00    +0.017 A 
ATOM     23  CE2 TRP A   1      28.614  46.091   4.059  0.00  0.00    +0.056 A 
ATOM     24  NE1 TRP A   1      28.490  45.027   3.195  0.00  0.00    -0.352 N 
ATOM     25  HE1 TRP A   1      28.999  44.919   2.295  0.00  0.00    +0.166 HD
ATOM     26  CD1 TRP A   1      27.577  44.122   3.717  0.00  0.00    +0.068 A 
ENDBRANCH  16  17
ENDBRANCH   1  16
TORSDOF 8
REMARK  Name = ../refined-set-2016/2vo5/2vo5_pocket.pdb
REMARK  147 active torsions:
REMARK  status: ('A' for Active; 'I' for Inactive)
REMARK    1  A    between atoms: _1  and  _3
REMARK    2  A    between atoms: _3  and  _4
REMARK    3  A    between atoms: _3  and  _6
REMARK    4  A    between atoms: _6  and  _7
REMARK    5  A    between atoms: _10  and  _12
REMARK    6  A    between atoms: _12  and  _13
REMARK    7  A    between atoms: _12  and  _15
REMARK    8  A    between atoms: _15  and  _16
REMARK    9  A    between atoms: _21  and  _23
REMARK   10  A    between atoms: _23  and  _24
REMARK   11  A    between atoms: _23  and  _26
REMARK   12  A    between atoms: _26  and  _27
REMARK   13  A    between atoms: _37  and  _39
REMARK   14  A    between atoms: _39  and  _40
REMARK   15  A    between atoms: _39  and  _42
REMARK   16  A    between atoms: _42  and  _43
REMARK   17  A    between atoms: _46  and  _48
REMARK   18  A    between atoms: _48  and  _49
REMARK   19  A    between atoms: _48  and  _51
REMARK   20  A    between atoms: _51  and  _52
REMARK   21  A    between atoms: _62  and  _64
REMARK   22  A    between atoms: _64  and  _65
REMARK   23  A    between atoms: _67  and  _69
REMARK   24  A    between atoms: _69  and  _70
REMARK   25  A    between atoms: _69  and  _72
REMARK   26  A    between atoms: _72  and  _73
REMARK   27  A    between atoms: _78  and  _80
REMARK   28  A    between atoms: _80  and  _81
REMARK   29  A    between atoms: _80  and  _83
REMARK   30  A    between atoms: _83  and  _84
REMARK   31  A    between atoms: _87  and  _89
REMARK   32  A    between atoms: _89  and  _90
REMARK   33  A    between atoms: _89  and  _92
REMARK   34  A    between atoms: _92  and  _93
REMARK   35  A    between atoms: _93  and  _94
REMARK   36  A    between atoms: _94  and  _95
REMARK   37  A    between atoms: _104  and  _106
REMARK   38  A    between atoms: _106  and  _107
REMARK   39  A    between atoms: _106  and  _109
REMARK   40  A    between atoms: _109  and  _110
REMARK   41  A    between atoms: _120  and  _122
REMARK   42  A    between atoms: _122  and  _123
REMARK   43  A    between atoms: _125  and  _127
REMARK   44  A    between atoms: _127  and  _128
REMARK   45  A    between atoms: _130  and  _132
REMARK   46  A    between atoms: _132  and  _133
REMARK   47  A    between atoms: _132  and  _135
REMARK   48  A    between atoms: _135  and  _136
REMARK   49  A    between atoms: _139  and  _141
REMARK   50  A    between atoms: _141  and  _142
REMARK   51  A    between atoms: _145  and  _147
REMARK   52  A    between atoms: _147  and  _148
REMARK   53  A    between atoms: _147  and  _150
REMARK   54  A    between atoms: _152  and  _154
REMARK   55  A    between atoms: _154  and  _155
REMARK   56  A    between atoms: _154  and  _157
REMARK   57  A    between atoms: _157  and  _158
REMARK   58  A    between atoms: _163  and  _165
REMARK   59  A    between atoms: _165  and  _166
REMARK   60  A    between atoms: _165  and  _168
REMARK   61  A    between atoms: _168  and  _169
REMARK   62  A    between atoms: _169  and  _170
REMARK   63  A    between atoms: _173  and  _175
REMARK   64  A    between atoms: _175  and  _176
REMARK   65  A    between atoms: _175  and  _178
REMARK   66  A    between atoms: _178  and  _179
REMARK   67  A    between atoms: _179  and  _180
REMARK   68  A    between atoms: _183  and  _185
REMARK   69  A    between atoms: _185  and  _186
REMARK   70  A    between atoms: _189  and  _191
REMARK   71  A    between atoms: _191  and  _192
REMARK   72  A    between atoms: _191  and  _194
REMARK   73  A    between atoms: _194  and  _195
REMARK   74  A    between atoms: _205  and  _207
REMARK   75  A    between atoms: _207  and  _208
REMARK   76  A    between atoms: _207  and  _210
REMARK   77  A    between atoms: _210  and  _211
REMARK   78  A    between atoms: _214  and  _215
REMARK   79  A    between atoms: _220  and  _222
REMARK   80  A    between atoms: _222  and  _223
REMARK   81  A    between atoms: _222  and  _225
REMARK   82  A    between atoms: _225  and  _226
REMARK   83  A    between atoms: _236  and  _238
REMARK   84  A    between atoms: _238  and  _239
REMARK   85  A    between atoms: _238  and  _241
REMARK   86  A    between atoms: _241  and  _242
REMARK   87  A    between atoms: _247  and  _249
REMARK   88  A    between atoms: _249  and  _250
REMARK   89  A    between atoms: _249  and  _252
REMARK   90  A    between atoms: _252  and  _253
REMARK   91  A    between atoms: _263  and  _265
REMARK   92  A    between atoms: _265  and  _266
REMARK   93  A    between atoms: _265  and  _268
REMARK   94  A    between atoms: _268  and  _269
REMARK   95  A    between atoms: _279  and  _281
REMARK   96  A    between atoms: _281  and  _282
REMARK   97  A    between atoms: _281  and  _284
REMARK   98  A    between atoms: _284  and  _285
REMARK   99  A    between atoms: _290  and  _291
REMARK  100  A    between atoms: _293  and  _295
REMARK  101  A    between atoms: _295  and  _296
REMARK  102  A    between atoms: _295  and  _298
REMARK  103  A    between atoms: _298  and  _299
REMARK  104  A    between atoms: _301  and  _303
REMARK  105  A    between atoms: _303  and  _304
REMARK  106  A    between atoms: _303  and  _306
REMARK  107  A    between atoms: _306  and  _307
REMARK  108  A    between atoms: _307  and  _308
REMARK  109  A    between atoms: _311  and  _313
REMARK  110  A    between atoms: _313  and  _314
REMARK  111  A    between atoms: _313  and  _316
REMARK  112  A    between atoms: _316  and  _317
REMARK  113  A    between atoms: _323  and  _325
REMARK  114  A    between atoms: _325  and  _326
REMARK  115  A    between atoms: _328  and  _330
REMARK  116  A    between atoms: _330  and  _331
REMARK  117  A    between atoms: _330  and  _333
REMARK  118  A    between atoms: _333  and  _334
REMARK  119  A    between atoms: _334  and  _335
REMARK  120  A    between atoms: _340  and  _342
REMARK  121  A    between atoms: _342  and  _343
REMARK  122  A    between atoms: _342  and  _345
REMARK  123  A    between atoms: _345  and  _346
REMARK  124  A    between atoms: _346  and  _347
REMARK  125  A    between atoms: _347  and  _348
REMARK  126  A    between atoms: _348  and  _349
REMARK  127  A    between atoms: _353  and  _355
REMARK  128  A    between atoms: _355  and  _356
REMARK  129  A    between atoms: _355  and  _358
REMARK  130  A    between atoms: _358  and  _359
REMARK  131  A    between atoms: _361  and  _363
REMARK  132  A    between atoms: _363  and  _364
REMARK  133  A    between atoms: _363  and  _366
REMARK  134  A    between atoms: _366  and  _367
REMARK  135  A    between atoms: _370  and  _372
REMARK  136  A    between atoms: _372  and  _373
REMARK  137  A    between atoms: _372  and  _375
REMARK  138  A    between atoms: _375  and  _376
REMARK  139  A    between atoms: _386  and  _388
REMARK  140  A    between atoms: _388  and  _389
REMARK  141  A    between atoms: _388  and  _391
REMARK  142  A    between atoms: _391  and  _392
REMARK  143  A    between atoms: _392  and  _393
REMARK  144  A    between atoms: _398  and  _400
REMARK  145  A    between atoms: _400  and  _401
REMARK  146  A    between atoms: _400  and  _403
REMARK  147  A    between atoms: _403  and  _404
REMARK                            x       y       z     vdW  Elec       q    Type
REMARK                         _______ _______ _______ _____ _____    ______ ____
ROOT
ATOM      1  CA  ASP A   1      28.819  38.383   8.622  0.00  0.00    +0.144 C 
ENDROOT
BRANCH   1   2
ATOM      2  N   ASP A   1      27.419  38.288   9.149  0.00  0.00    -0.239 NA
ATOM      3  H   ASP A   1      26.737  39.052   8.967  0.00  0.00    +0.142 HD
ENDBRANCH   1   2
BRANCH   1   4
ATOM      4  C   ASP A   1      29.830  38.588   9.792  0.00  0.00    +0.225 C 
ATOM      5  O   ASP A   1      29.504  39.209  10.809  0.00  0.00    -0.287 OA
ENDBRANCH   1   4
BRANCH   1   6
ATOM      6  CB  ASP A   1      29.033  39.563   7.655  0.00  0.00    +0.139 C 
BRANCH   6   7
ATOM      7  CG  ASP A   1      28.335  39.419   6.315  0.00  0.00    +0.367 C 
ATOM      8  OD2 ASP A   1      27.621  38.439   6.078  0.00  0.00    -0.246 OA
ATOM      9  OD1 ASP A   1      28.473  40.339   5.469  0.00  0.00    -0.246 OA
ENDBRANCH   6   7
ENDBRANCH   1   6
TORSDOF 4
REMARK  Name = ../refined-set-2016/2vo5/2vo5_pocket.pdb
REMARK  147 active torsions:
REMARK  status: ('A' for Active; 'I' for Inactive)
REMARK    1  A    between atoms: _1  and  _3
REMARK    2  A    between atoms: _3  and  _4
REMARK    3  A    between atoms: _3  and  _6
REMARK    4  A    between atoms: _6  and  _7
REMARK    5  A    between atoms: _10  and  _12
REMARK    6  A    between atoms: _12  and  _13
REMARK    7  A    between atoms: _12  and  _15
REMARK    8  A    between atoms: _15  and  _16
REMARK    9  A    between atoms: _21  and  _23
REMARK   10  A    between atoms: _23  and  _24
REMARK   11  A    between atoms: _23  and  _26
REMARK   12  A    between atoms: _26  and  _27
REMARK   13  A    between atoms: _37  and  _39
REMARK   14  A    between atoms: _39  and  _40
REMARK   15  A    between atoms: _39  and  _42
REMARK   16  A    between atoms: _42  and  _43
REMARK   17  A    between atoms: _46  and  _48
REMARK   18  A    between atoms: _48  and  _49
REMARK   19  A    between atoms: _48  and  _51
REMARK   20  A    between atoms: _51  and  _52
REMARK   21  A    between atoms: _62  and  _64
REMARK   22  A    between atoms: _64  and  _65
REMARK   23  A    between atoms: _67  and  _69
REMARK   24  A    between atoms: _69  and  _70
REMARK   25  A    between atoms: _69  and  _72
REMARK   26  A    between atoms: _72  and  _73
REMARK   27  A    between atoms: _78  and  _80
REMARK   28  A    between atoms: _80  and  _81
REMARK   29  A    between atoms: _80  and  _83
REMARK   30  A    between atoms: _83  and  _84
REMARK   31  A    between atoms: _87  and  _89
REMARK   32  A    between atoms: _89  and  _90
REMARK   33  A    between atoms: _89  and  _92
REMARK   34  A    between atoms: _92  and  _93
REMARK   35  A    between atoms: _93  and  _94
REMARK   36  A    between atoms: _94  and  _95
REMARK   37  A    between atoms: _104  and  _106
REMARK   38  A    between atoms: _106  and  _107
REMARK   39  A    between atoms: _106  and  _109
REMARK   40  A    between atoms: _109  and  _110
REMARK   41  A    between atoms: _120  and  _122
REMARK   42  A    between atoms: _122  and  _123
REMARK   43  A    between atoms: _125  and  _127
REMARK   44  A    between atoms: _127  and  _128
REMARK   45  A    between atoms: _130  and  _132
REMARK   46  A    between atoms: _132  and  _133
REMARK   47  A    between atoms: _132  and  _135
REMARK   48  A    between atoms: _135  and  _136
REMARK   49  A    between atoms: _139  and  _141
REMARK   50  A    between atoms: _141  and  _142
REMARK   51  A    between atoms: _145  and  _147
REMARK   52  A    between atoms: _147  and  _148
REMARK   53  A    between atoms: _147  and  _150
REMARK   54  A    between atoms: _152  and  _154
REMARK   55  A    between atoms: _154  and  _155
REMARK   56  A    between atoms: _154  and  _157
REMARK   57  A    between atoms: _157  and  _158
REMARK   58  A    between atoms: _163  and  _165
REMARK   59  A    between atoms: _165  and  _166
REMARK   60  A    between atoms: _165  and  _168
REMARK   61  A    between atoms: _168  and  _169
REMARK   62  A    between atoms: _169  and  _170
REMARK   63  A    between atoms: _173  and  _175
REMARK   64  A    between atoms: _175  and  _176
REMARK   65  A    between atoms: _175  and  _178
REMARK   66  A    between atoms: _178  and  _179
REMARK   67  A    between atoms: _179  and  _180
REMARK   68  A    between atoms: _183  and  _185
REMARK   69  A    between atoms: _185  and  _186
REMARK   70  A    between atoms: _189  and  _191
REMARK   71  A    between atoms: _191  and  _192
REMARK   72  A    between atoms: _191  and  _194
REMARK   73  A    between atoms: _194  and  _195
REMARK   74  A    between atoms: _205  and  _207
REMARK   75  A    between atoms: _207  and  _208
REMARK   76  A    between atoms: _207  and  _210
REMARK   77  A    between atoms: _210  and  _211
REMARK   78  A    between atoms: _214  and  _215
REMARK   79  A    between atoms: _220  and  _222
REMARK   80  A    between atoms: _222  and  _223
REMARK   81  A    between atoms: _222  and  _225
REMARK   82  A    between atoms: _225  and  _226
REMARK   83  A    between atoms: _236  and  _238
REMARK   84  A    between atoms: _238  and  _239
REMARK   85  A    between atoms: _238  and  _241
REMARK   86  A    between atoms: _241  and  _242
REMARK   87  A    between atoms: _247  and  _249
REMARK   88  A    between atoms: _249  and  _250
REMARK   89  A    between atoms: _249  and  _252
REMARK   90  A    between atoms: _252  and  _253
REMARK   91  A    between atoms: _263  and  _265
REMARK   92  A    between atoms: _265  and  _266
REMARK   93  A    between atoms: _265  and  _268
REMARK   94  A    between atoms: _268  and  _269
REMARK   95  A    between atoms: _279  and  _281
REMARK   96  A    between atoms: _281  and  _282
REMARK   97  A    between atoms: _281  and  _284
REMARK   98  A    between atoms: _284  and  _285
REMARK   99  A    between atoms: _290  and  _291
REMARK  100  A    between atoms: _293  and  _295
REMARK  101  A    between atoms: _295  and  _296
REMARK  102  A    between atoms: _295  and  _298
REMARK  103  A    between atoms: _298  and  _299
REMARK  104  A    between atoms: _301  and  _303
REMARK  105  A    between atoms: _303  and  _304
REMARK  106  A    between atoms: _303  and  _306
REMARK  107  A    between atoms: _306  and  _307
REMARK  108  A    between atoms: _307  and  _308
REMARK  109  A    between atoms: _311  and  _313
REMARK  110  A    between atoms: _313  and  _314
REMARK  111  A    between atoms: _313  and  _316
REMARK  112  A    between atoms: _316  and  _317
REMARK  113  A    between atoms: _323  and  _325
REMARK  114  A    between atoms: _325  and  _326
REMARK  115  A    between atoms: _328  and  _330
REMARK  116  A    between atoms: _330  and  _331
REMARK  117  A    between atoms: _330  and  _333
REMARK  118  A    between atoms: _333  and  _334
REMARK  119  A    between atoms: _334  and  _335
REMARK  120  A    between atoms: _340  and  _342
REMARK  121  A    between atoms: _342  and  _343
REMARK  122  A    between atoms: _342  and  _345
REMARK  123  A    between atoms: _345  and  _346
REMARK  124  A    between atoms: _346  and  _347
REMARK  125  A    between atoms: _347  and  _348
REMARK  126  A    between atoms: _348  and  _349
REMARK  127  A    between atoms: _353  and  _355
REMARK  128  A    between atoms: _355  and  _356
REMARK  129  A    between atoms: _355  and  _358
REMARK  130  A    between atoms: _358  and  _359
REMARK  131  A    between atoms: _361  and  _363
REMARK  132  A    between atoms: _363  and  _364
REMARK  133  A    between atoms: _363  and  _366
REMARK  134  A    between atoms: _366  and  _367
REMARK  135  A    between atoms: _370  and  _372
REMARK  136  A    between atoms: _372  and  _373
REMARK  137  A    between atoms: _372  and  _375
REMARK  138  A    between atoms: _375  and  _376
REMARK  139  A    between atoms: _386  and  _388
REMARK  140  A    between atoms: _388  and  _389
REMARK  141  A    between atoms: _388  and  _391
REMARK  142  A    between atoms: _391  and  _392
REMARK  143  A    between atoms: _392  and  _393
REMARK  144  A    between atoms: _398  and  _400
REMARK  145  A    between atoms: _400  and  _401
REMARK  146  A    between atoms: _400  and  _403
REMARK  147  A    between atoms: _403  and  _404
REMARK                            x       y       z     vdW  Elec       q    Type
REMARK                         _______ _______ _______ _____ _____    ______ ____
ROOT
ATOM      1  C   ALA A   1      34.978  44.588   2.810  0.00  0.00    +0.238 C 
ATOM      2  O   ALA A   1      35.796  45.467   3.119  0.00  0.00    -0.274 OA
ATOM      3  N   CYS A   2      34.813  44.140   1.581  0.00  0.00    -0.298 N 
ATOM      4  H   CYS A   2      34.369  43.205   1.479  0.00  0.00    +0.150 HD
ENDROOT
BRANCH   1   5
ATOM      5  CA  ALA A   1      34.113  43.861   3.890  0.00  0.00    +0.145 C 
ATOM      6  CB  ALA A   1      32.933  44.751   4.289  0.00  0.00    +0.028 C 
BRANCH   5   7
ATOM      7  N   ALA A   1      34.868  43.454   5.092  0.00  0.00    -0.238 NA
ATOM      8  H   ALA A   1      35.705  44.001   5.379  0.00  0.00    +0.142 HD
ENDBRANCH   5   7
ENDBRANCH   1   5
BRANCH   3   9
ATOM      9  CA  CYS A   2      35.191  44.825   0.350  0.00  0.00    +0.149 C 
BRANCH   9  10
ATOM     10  CB  CYS A   2      34.450  46.169   0.207  0.00  0.00    +0.096 C 
ATOM     11  SG  CYS A   2      32.658  45.970  -0.004  0.00  0.00    -0.080 S 
ENDBRANCH   9  10
BRANCH   9  12
ATOM     12  C   CYS A   2      36.670  44.944   0.035  0.00  0.00    +0.228 C 
ATOM     13  O   CYS A   2      37.034  45.480  -1.022  0.00  0.00    -0.286 OA
ENDBRANCH   9  12
ENDBRANCH   3   9
TORSDOF 5
REMARK  Name = ../refined-set-2016/2vo5/2vo5_pocket.pdb
REMARK  147 active torsions:
REMARK  status: ('A' for Active; 'I' for Inactive)
REMARK    1  A    between atoms: _1  and  _3
REMARK    2  A    between atoms: _3  and  _4
REMARK    3  A    between atoms: _3  and  _6
REMARK    4  A    between atoms: _6  and  _7
REMARK    5  A    between atoms: _10  and  _12
REMARK    6  A    between atoms: _12  and  _13
REMARK    7  A    between atoms: _12  and  _15
REMARK    8  A    between atoms: _15  and  _16
REMARK    9  A    between atoms: _21  and  _23
REMARK   10  A    between atoms: _23  and  _24
REMARK   11  A    between atoms: _23  and  _26
REMARK   12  A    between atoms: _26  and  _27
REMARK   13  A    between atoms: _37  and  _39
REMARK   14  A    between atoms: _39  and  _40
REMARK   15  A    between atoms: _39  and  _42
REMARK   16  A    between atoms: _42  and  _43
REMARK   17  A    between atoms: _46  and  _48
REMARK   18  A    between atoms: _48  and  _49
REMARK   19  A    between atoms: _48  and  _51
REMARK   20  A    between atoms: _51  and  _52
REMARK   21  A    between atoms: _62  and  _64
REMARK   22  A    between atoms: _64  and  _65
REMARK   23  A    between atoms: _67  and  _69
REMARK   24  A    between atoms: _69  and  _70
REMARK   25  A    between atoms: _69  and  _72
REMARK   26  A    between atoms: _72  and  _73
REMARK   27  A    between atoms: _78  and  _80
REMARK   28  A    between atoms: _80  and  _81
REMARK   29  A    between atoms: _80  and  _83
REMARK   30  A    between atoms: _83  and  _84
REMARK   31  A    between atoms: _87  and  _89
REMARK   32  A    between atoms: _89  and  _90
REMARK   33  A    between atoms: _89  and  _92
REMARK   34  A    between atoms: _92  and  _93
REMARK   35  A    between atoms: _93  and  _94
REMARK   36  A    between atoms: _94  and  _95
REMARK   37  A    between atoms: _104  and  _106
REMARK   38  A    between atoms: _106  and  _107
REMARK   39  A    between atoms: _106  and  _109
REMARK   40  A    between atoms: _109  and  _110
REMARK   41  A    between atoms: _120  and  _122
REMARK   42  A    between atoms: _122  and  _123
REMARK   43  A    between atoms: _125  and  _127
REMARK   44  A    between atoms: _127  and  _128
REMARK   45  A    between atoms: _130  and  _132
REMARK   46  A    between atoms: _132  and  _133
REMARK   47  A    between atoms: _132  and  _135
REMARK   48  A    between atoms: _135  and  _136
REMARK   49  A    between atoms: _139  and  _141
REMARK   50  A    between atoms: _141  and  _142
REMARK   51  A    between atoms: _145  and  _147
REMARK   52  A    between atoms: _147  and  _148
REMARK   53  A    between atoms: _147  and  _150
REMARK   54  A    between atoms: _152  and  _154
REMARK   55  A    between atoms: _154  and  _155
REMARK   56  A    between atoms: _154  and  _157
REMARK   57  A    between atoms: _157  and  _158
REMARK   58  A    between atoms: _163  and  _165
REMARK   59  A    between atoms: _165  and  _166
REMARK   60  A    between atoms: _165  and  _168
REMARK   61  A    between atoms: _168  and  _169
REMARK   62  A    between atoms: _169  and  _170
REMARK   63  A    between atoms: _173  and  _175
REMARK   64  A    between atoms: _175  and  _176
REMARK   65  A    between atoms: _175  and  _178
REMARK   66  A    between atoms: _178  and  _179
REMARK   67  A    between atoms: _179  and  _180
REMARK   68  A    between atoms: _183  and  _185
REMARK   69  A    between atoms: _185  and  _186
REMARK   70  A    between atoms: _189  and  _191
REMARK   71  A    between atoms: _191  and  _192
REMARK   72  A    between atoms: _191  and  _194
REMARK   73  A    between atoms: _194  and  _195
REMARK   74  A    between atoms: _205  and  _207
REMARK   75  A    between atoms: _207  and  _208
REMARK   76  A    between atoms: _207  and  _210
REMARK   77  A    between atoms: _210  and  _211
REMARK   78  A    between atoms: _214  and  _215
REMARK   79  A    between atoms: _220  and  _222
REMARK   80  A    between atoms: _222  and  _223
REMARK   81  A    between atoms: _222  and  _225
REMARK   82  A    between atoms: _225  and  _226
REMARK   83  A    between atoms: _236  and  _238
REMARK   84  A    between atoms: _238  and  _239
REMARK   85  A    between atoms: _238  and  _241
REMARK   86  A    between atoms: _241  and  _242
REMARK   87  A    between atoms: _247  and  _249
REMARK   88  A    between atoms: _249  and  _250
REMARK   89  A    between atoms: _249  and  _252
REMARK   90  A    between atoms: _252  and  _253
REMARK   91  A    between atoms: _263  and  _265
REMARK   92  A    between atoms: _265  and  _266
REMARK   93  A    between atoms: _265  and  _268
REMARK   94  A    between atoms: _268  and  _269
REMARK   95  A    between atoms: _279  and  _281
REMARK   96  A    between atoms: _281  and  _282
REMARK   97  A    between atoms: _281  and  _284
REMARK   98  A    between atoms: _284  and  _285
REMARK   99  A    between atoms: _290  and  _291
REMARK  100  A    between atoms: _293  and  _295
REMARK  101  A    between atoms: _295  and  _296
REMARK  102  A    between atoms: _295  and  _298
REMARK  103  A    between atoms: _298  and  _299
REMARK  104  A    between atoms: _301  and  _303
REMARK  105  A    between atoms: _303  and  _304
REMARK  106  A    between atoms: _303  and  _306
REMARK  107  A    between atoms: _306  and  _307
REMARK  108  A    between atoms: _307  and  _308
REMARK  109  A    between atoms: _311  and  _313
REMARK  110  A    between atoms: _313  and  _314
REMARK  111  A    between atoms: _313  and  _316
REMARK  112  A    between atoms: _316  and  _317
REMARK  113  A    between atoms: _323  and  _325
REMARK  114  A    between atoms: _325  and  _326
REMARK  115  A    between atoms: _328  and  _330
REMARK  116  A    between atoms: _330  and  _331
REMARK  117  A    between atoms: _330  and  _333
REMARK  118  A    between atoms: _333  and  _334
REMARK  119  A    between atoms: _334  and  _335
REMARK  120  A    between atoms: _340  and  _342
REMARK  121  A    between atoms: _342  and  _343
REMARK  122  A    between atoms: _342  and  _345
REMARK  123  A    between atoms: _345  and  _346
REMARK  124  A    between atoms: _346  and  _347
REMARK  125  A    between atoms: _347  and  _348
REMARK  126  A    between atoms: _348  and  _349
REMARK  127  A    between atoms: _353  and  _355
REMARK  128  A    between atoms: _355  and  _356
REMARK  129  A    between atoms: _355  and  _358
REMARK  130  A    between atoms: _358  and  _359
REMARK  131  A    between atoms: _361  and  _363
REMARK  132  A    between atoms: _363  and  _364
REMARK  133  A    between atoms: _363  and  _366
REMARK  134  A    between atoms: _366  and  _367
REMARK  135  A    between atoms: _370  and  _372
REMARK  136  A    between atoms: _372  and  _373
REMARK  137  A    between atoms: _372  and  _375
REMARK  138  A    between atoms: _375  and  _376
REMARK  139  A    between atoms: _386  and  _388
REMARK  140  A    between atoms: _388  and  _389
REMARK  141  A    between atoms: _388  and  _391
REMARK  142  A    between atoms: _391  and  _392
REMARK  143  A    between atoms: _392  and  _393
REMARK  144  A    between atoms: _398  and  _400
REMARK  145  A    between atoms: _400  and  _401
REMARK  146  A    between atoms: _400  and  _403
REMARK  147  A    between atoms: _403  and  _404
REMARK                            x       y       z     vdW  Elec       q    Type
REMARK                         _______ _______ _______ _____ _____    ______ ____
ROOT
ATOM      1  C   ASN A   1      32.392  40.886   1.186  0.00  0.00    +0.239 C 
ATOM      2  O   ASN A   1      33.252  41.781   1.257  0.00  0.00    -0.274 OA
ATOM      3  N   GLU A   2      32.223  40.117   0.105  0.00  0.00    -0.298 N 
ATOM      4  H   GLU A   2      31.694  39.227   0.200  0.00  0.00    +0.150 HD
ENDROOT
BRANCH   1   5
ATOM      5  CA  ASN A   1      31.455  40.615   2.379  0.00  0.00    +0.154 C 
BRANCH   5   6
ATOM      6  N   ASN A   1      32.173  40.082   3.507  0.00  0.00    -0.238 NA
ATOM      7  H   ASN A   1      32.695  40.746   4.114  0.00  0.00    +0.142 HD
ENDBRANCH   5   6
BRANCH   5   8
ATOM      8  CB  ASN A   1      30.791  41.939   2.793  0.00  0.00    +0.111 C 
BRANCH   8   9
ATOM      9  CG  ASN A   1      30.030  42.548   1.684  0.00  0.00    +0.221 C 
ATOM     10  OD1 ASN A   1      29.037  41.989   1.249  0.00  0.00    -0.275 OA
ATOM     11  ND2 ASN A   1      30.493  43.690   1.180  0.00  0.00    -0.329 N 
ATOM     12 HD21 ASN A   1      31.344  44.130   1.585  0.00  0.00    +0.145 HD
ATOM     13 HD22 ASN A   1      30.003  44.142   0.382  0.00  0.00    +0.145 HD
ENDBRANCH   8   9
ENDBRANCH   5   8
ENDBRANCH   1   5
BRANCH   3  14
ATOM     14  CA  GLU A   2      32.761  40.487  -1.219  0.00  0.00    +0.137 C 
BRANCH  14  15
ATOM     15  C   GLU A   2      34.292  40.514  -1.361  0.00  0.00    +0.227 C 
ATOM     16  O   GLU A   2      34.808  41.003  -2.344  0.00  0.00    -0.286 OA
ENDBRANCH  14  15
BRANCH  14  17
ATOM     17  CB  GLU A   2      32.175  41.833  -1.665  0.00  0.00    +0.039 C 
BRANCH  17  18
ATOM     18  CG  GLU A   2      30.779  41.789  -2.226  0.00  0.00    +0.116 C 
BRANCH  18  19
ATOM     19  CD  GLU A   2      30.234  43.176  -2.518  0.00  0.00    +0.365 C 
ATOM     20  OE2 GLU A   2      30.945  44.175  -2.233  0.00  0.00    -0.246 OA
ATOM     21  OE1 GLU A   2      29.077  43.286  -2.999  0.00  0.00    -0.246 OA
ENDBRANCH  18  19
ENDBRANCH  17  18
ENDBRANCH  14  17
ENDBRANCH   3  14
TORSDOF 9
REMARK  Name = ../refined-set-2016/2vo5/2vo5_pocket.pdb
REMARK  147 active torsions:
REMARK  status: ('A' for Active; 'I' for Inactive)
REMARK    1  A    between atoms: _1  and  _3
REMARK    2  A    between atoms: _3  and  _4
REMARK    3  A    between atoms: _3  and  _6
REMARK    4  A    between atoms: _6  and  _7
REMARK    5  A    between atoms: _10  and  _12
REMARK    6  A    between atoms: _12  and  _13
REMARK    7  A    between atoms: _12  and  _15
REMARK    8  A    between atoms: _15  and  _16
REMARK    9  A    between atoms: _21  and  _23
REMARK   10  A    between atoms: _23  and  _24
REMARK   11  A    between atoms: _23  and  _26
REMARK   12  A    between atoms: _26  and  _27
REMARK   13  A    between atoms: _37  and  _39
REMARK   14  A    between atoms: _39  and  _40
REMARK   15  A    between atoms: _39  and  _42
REMARK   16  A    between atoms: _42  and  _43
REMARK   17  A    between atoms: _46  and  _48
REMARK   18  A    between atoms: _48  and  _49
REMARK   19  A    between atoms: _48  and  _51
REMARK   20  A    between atoms: _51  and  _52
REMARK   21  A    between atoms: _62  and  _64
REMARK   22  A    between atoms: _64  and  _65
REMARK   23  A    between atoms: _67  and  _69
REMARK   24  A    between atoms: _69  and  _70
REMARK   25  A    between atoms: _69  and  _72
REMARK   26  A    between atoms: _72  and  _73
REMARK   27  A    between atoms: _78  and  _80
REMARK   28  A    between atoms: _80  and  _81
REMARK   29  A    between atoms: _80  and  _83
REMARK   30  A    between atoms: _83  and  _84
REMARK   31  A    between atoms: _87  and  _89
REMARK   32  A    between atoms: _89  and  _90
REMARK   33  A    between atoms: _89  and  _92
REMARK   34  A    between atoms: _92  and  _93
REMARK   35  A    between atoms: _93  and  _94
REMARK   36  A    between atoms: _94  and  _95
REMARK   37  A    between atoms: _104  and  _106
REMARK   38  A    between atoms: _106  and  _107
REMARK   39  A    between atoms: _106  and  _109
REMARK   40  A    between atoms: _109  and  _110
REMARK   41  A    between atoms: _120  and  _122
REMARK   42  A    between atoms: _122  and  _123
REMARK   43  A    between atoms: _125  and  _127
REMARK   44  A    between atoms: _127  and  _128
REMARK   45  A    between atoms: _130  and  _132
REMARK   46  A    between atoms: _132  and  _133
REMARK   47  A    between atoms: _132  and  _135
REMARK   48  A    between atoms: _135  and  _136
REMARK   49  A    between atoms: _139  and  _141
REMARK   50  A    between atoms: _141  and  _142
REMARK   51  A    between atoms: _145  and  _147
REMARK   52  A    between atoms: _147  and  _148
REMARK   53  A    between atoms: _147  and  _150
REMARK   54  A    between atoms: _152  and  _154
REMARK   55  A    between atoms: _154  and  _155
REMARK   56  A    between atoms: _154  and  _157
REMARK   57  A    between atoms: _157  and  _158
REMARK   58  A    between atoms: _163  and  _165
REMARK   59  A    between atoms: _165  and  _166
REMARK   60  A    between atoms: _165  and  _168
REMARK   61  A    between atoms: _168  and  _169
REMARK   62  A    between atoms: _169  and  _170
REMARK   63  A    between atoms: _173  and  _175
REMARK   64  A    between atoms: _175  and  _176
REMARK   65  A    between atoms: _175  and  _178
REMARK   66  A    between atoms: _178  and  _179
REMARK   67  A    between atoms: _179  and  _180
REMARK   68  A    between atoms: _183  and  _185
REMARK   69  A    between atoms: _185  and  _186
REMARK   70  A    between atoms: _189  and  _191
REMARK   71  A    between atoms: _191  and  _192
REMARK   72  A    between atoms: _191  and  _194
REMARK   73  A    between atoms: _194  and  _195
REMARK   74  A    between atoms: _205  and  _207
REMARK   75  A    between atoms: _207  and  _208
REMARK   76  A    between atoms: _207  and  _210
REMARK   77  A    between atoms: _210  and  _211
REMARK   78  A    between atoms: _214  and  _215
REMARK   79  A    between atoms: _220  and  _222
REMARK   80  A    between atoms: _222  and  _223
REMARK   81  A    between atoms: _222  and  _225
REMARK   82  A    between atoms: _225  and  _226
REMARK   83  A    between atoms: _236  and  _238
REMARK   84  A    between atoms: _238  and  _239
REMARK   85  A    between atoms: _238  and  _241
REMARK   86  A    between atoms: _241  and  _242
REMARK   87  A    between atoms: _247  and  _249
REMARK   88  A    between atoms: _249  and  _250
REMARK   89  A    between atoms: _249  and  _252
REMARK   90  A    between atoms: _252  and  _253
REMARK   91  A    between atoms: _263  and  _265
REMARK   92  A    between atoms: _265  and  _266
REMARK   93  A    between atoms: _265  and  _268
REMARK   94  A    between atoms: _268  and  _269
REMARK   95  A    between atoms: _279  and  _281
REMARK   96  A    between atoms: _281  and  _282
REMARK   97  A    between atoms: _281  and  _284
REMARK   98  A    between atoms: _284  and  _285
REMARK   99  A    between atoms: _290  and  _291
REMARK  100  A    between atoms: _293  and  _295
REMARK  101  A    between atoms: _295  and  _296
REMARK  102  A    between atoms: _295  and  _298
REMARK  103  A    between atoms: _298  and  _299
REMARK  104  A    between atoms: _301  and  _303
REMARK  105  A    between atoms: _303  and  _304
REMARK  106  A    between atoms: _303  and  _306
REMARK  107  A    between atoms: _306  and  _307
REMARK  108  A    between atoms: _307  and  _308
REMARK  109  A    between atoms: _311  and  _313
REMARK  110  A    between atoms: _313  and  _314
REMARK  111  A    between atoms: _313  and  _316
REMARK  112  A    between atoms: _316  and  _317
REMARK  113  A    between atoms: _323  and  _325
REMARK  114  A    between atoms: _325  and  _326
REMARK  115  A    between atoms: _328  and  _330
REMARK  116  A    between atoms: _330  and  _331
REMARK  117  A    between atoms: _330  and  _333
REMARK  118  A    between atoms: _333  and  _334
REMARK  119  A    between atoms: _334  and  _335
REMARK  120  A    between atoms: _340  and  _342
REMARK  121  A    between atoms: _342  and  _343
REMARK  122  A    between atoms: _342  and  _345
REMARK  123  A    between atoms: _345  and  _346
REMARK  124  A    between atoms: _346  and  _347
REMARK  125  A    between atoms: _347  and  _348
REMARK  126  A    between atoms: _348  and  _349
REMARK  127  A    between atoms: _353  and  _355
REMARK  128  A    between atoms: _355  and  _356
REMARK  129  A    between atoms: _355  and  _358
REMARK  130  A    between atoms: _358  and  _359
REMARK  131  A    between atoms: _361  and  _363
REMARK  132  A    between atoms: _363  and  _364
REMARK  133  A    between atoms: _363  and  _366
REMARK  134  A    between atoms: _366  and  _367
REMARK  135  A    between atoms: _370  and  _372
REMARK  136  A    between atoms: _372  and  _373
REMARK  137  A    between atoms: _372  and  _375
REMARK  138  A    between atoms: _375  and  _376
REMARK  139  A    between atoms: _386  and  _388
REMARK  140  A    between atoms: _388  and  _389
REMARK  141  A    between atoms: _388  and  _391
REMARK  142  A    between atoms: _391  and  _392
REMARK  143  A    between atoms: _392  and  _393
REMARK  144  A    between atoms: _398  and  _400
REMARK  145  A    between atoms: _400  and  _401
REMARK  146  A    between atoms: _400  and  _403
REMARK  147  A    between atoms: _403  and  _404
REMARK                            x       y       z     vdW  Elec       q    Type
REMARK                         _______ _______ _______ _____ _____    ______ ____
ROOT
ATOM      1  CA  GLU A   1      35.073  38.561  -5.546  0.00  0.00    +0.145 C 
ENDROOT
BRANCH   1   2
ATOM      2  C   GLU A   1      36.003  39.738  -5.838  0.00  0.00    +0.238 C 
ATOM      3  N   ALA A   2      36.284  40.554  -4.820  0.00  0.00    -0.298 N 
ATOM      4  H   ALA A   2      35.735  40.463  -3.941  0.00  0.00    +0.150 HD
ATOM      5  O   GLU A   1      36.452  39.893  -6.992  0.00  0.00    -0.274 OA
BRANCH   3   6
ATOM      6  CA  ALA A   2      37.333  41.571  -4.891  0.00  0.00    +0.137 C 
ATOM      7  CB  ALA A   2      37.559  42.236  -3.513  0.00  0.00    +0.030 C 
BRANCH   6   8
ATOM      8  C   ALA A   2      38.664  41.028  -5.408  0.00  0.00    +0.227 C 
ATOM      9  O   ALA A   2      39.296  41.597  -6.309  0.00  0.00    -0.286 OA
ENDBRANCH   6   8
ENDBRANCH   3   6
ENDBRANCH   1   2
BRANCH   1  10
ATOM     10  N   GLU A   1      35.484  37.930  -4.313  0.00  0.00    -0.238 NA
ATOM     11  H   GLU A   1      34.826  37.948  -3.507  0.00  0.00    +0.142 HD
ENDBRANCH   1  10
BRANCH   1  12
ATOM     12  CB  GLU A   1      33.601  39.027  -5.438  0.00  0.00    +0.038 C 
BRANCH  12  13
ATOM     13  CG  GLU A   1      33.025  39.672  -6.740  0.00  0.00    +0.116 C 
BRANCH  13  14
ATOM     14  CD  GLU A   1      31.587  40.145  -6.612  0.00  0.00    +0.365 C 
ATOM     15  OE2 GLU A   1      31.188  40.602  -5.510  0.00  0.00    -0.246 OA
ATOM     16  OE1 GLU A   1      30.851  40.064  -7.626  0.00  0.00    -0.246 OA
ENDBRANCH  13  14
ENDBRANCH  12  13
ENDBRANCH   1  12
TORSDOF 7
REMARK  Name = ../refined-set-2016/2vo5/2vo5_pocket.pdb
REMARK  147 active torsions:
REMARK  status: ('A' for Active; 'I' for Inactive)
REMARK    1  A    between atoms: _1  and  _3
REMARK    2  A    between atoms: _3  and  _4
REMARK    3  A    between atoms: _3  and  _6
REMARK    4  A    between atoms: _6  and  _7
REMARK    5  A    between atoms: _10  and  _12
REMARK    6  A    between atoms: _12  and  _13
REMARK    7  A    between atoms: _12  and  _15
REMARK    8  A    between atoms: _15  and  _16
REMARK    9  A    between atoms: _21  and  _23
REMARK   10  A    between atoms: _23  and  _24
REMARK   11  A    between atoms: _23  and  _26
REMARK   12  A    between atoms: _26  and  _27
REMARK   13  A    between atoms: _37  and  _39
REMARK   14  A    between atoms: _39  and  _40
REMARK   15  A    between atoms: _39  and  _42
REMARK   16  A    between atoms: _42  and  _43
REMARK   17  A    between atoms: _46  and  _48
REMARK   18  A    between atoms: _48  and  _49
REMARK   19  A    between atoms: _48  and  _51
REMARK   20  A    between atoms: _51  and  _52
REMARK   21  A    between atoms: _62  and  _64
REMARK   22  A    between atoms: _64  and  _65
REMARK   23  A    between atoms: _67  and  _69
REMARK   24  A    between atoms: _69  and  _70
REMARK   25  A    between atoms: _69  and  _72
REMARK   26  A    between atoms: _72  and  _73
REMARK   27  A    between atoms: _78  and  _80
REMARK   28  A    between atoms: _80  and  _81
REMARK   29  A    between atoms: _80  and  _83
REMARK   30  A    between atoms: _83  and  _84
REMARK   31  A    between atoms: _87  and  _89
REMARK   32  A    between atoms: _89  and  _90
REMARK   33  A    between atoms: _89  and  _92
REMARK   34  A    between atoms: _92  and  _93
REMARK   35  A    between atoms: _93  and  _94
REMARK   36  A    between atoms: _94  and  _95
REMARK   37  A    between atoms: _104  and  _106
REMARK   38  A    between atoms: _106  and  _107
REMARK   39  A    between atoms: _106  and  _109
REMARK   40  A    between atoms: _109  and  _110
REMARK   41  A    between atoms: _120  and  _122
REMARK   42  A    between atoms: _122  and  _123
REMARK   43  A    between atoms: _125  and  _127
REMARK   44  A    between atoms: _127  and  _128
REMARK   45  A    between atoms: _130  and  _132
REMARK   46  A    between atoms: _132  and  _133
REMARK   47  A    between atoms: _132  and  _135
REMARK   48  A    between atoms: _135  and  _136
REMARK   49  A    between atoms: _139  and  _141
REMARK   50  A    between atoms: _141  and  _142
REMARK   51  A    between atoms: _145  and  _147
REMARK   52  A    between atoms: _147  and  _148
REMARK   53  A    between atoms: _147  and  _150
REMARK   54  A    between atoms: _152  and  _154
REMARK   55  A    between atoms: _154  and  _155
REMARK   56  A    between atoms: _154  and  _157
REMARK   57  A    between atoms: _157  and  _158
REMARK   58  A    between atoms: _163  and  _165
REMARK   59  A    between atoms: _165  and  _166
REMARK   60  A    between atoms: _165  and  _168
REMARK   61  A    between atoms: _168  and  _169
REMARK   62  A    between atoms: _169  and  _170
REMARK   63  A    between atoms: _173  and  _175
REMARK   64  A    between atoms: _175  and  _176
REMARK   65  A    between atoms: _175  and  _178
REMARK   66  A    between atoms: _178  and  _179
REMARK   67  A    between atoms: _179  and  _180
REMARK   68  A    between atoms: _183  and  _185
REMARK   69  A    between atoms: _185  and  _186
REMARK   70  A    between atoms: _189  and  _191
REMARK   71  A    between atoms: _191  and  _192
REMARK   72  A    between atoms: _191  and  _194
REMARK   73  A    between atoms: _194  and  _195
REMARK   74  A    between atoms: _205  and  _207
REMARK   75  A    between atoms: _207  and  _208
REMARK   76  A    between atoms: _207  and  _210
REMARK   77  A    between atoms: _210  and  _211
REMARK   78  A    between atoms: _214  and  _215
REMARK   79  A    between atoms: _220  and  _222
REMARK   80  A    between atoms: _222  and  _223
REMARK   81  A    between atoms: _222  and  _225
REMARK   82  A    between atoms: _225  and  _226
REMARK   83  A    between atoms: _236  and  _238
REMARK   84  A    between atoms: _238  and  _239
REMARK   85  A    between atoms: _238  and  _241
REMARK   86  A    between atoms: _241  and  _242
REMARK   87  A    between atoms: _247  and  _249
REMARK   88  A    between atoms: _249  and  _250
REMARK   89  A    between atoms: _249  and  _252
REMARK   90  A    between atoms: _252  and  _253
REMARK   91  A    between atoms: _263  and  _265
REMARK   92  A    between atoms: _265  and  _266
REMARK   93  A    between atoms: _265  and  _268
REMARK   94  A    between atoms: _268  and  _269
REMARK   95  A    between atoms: _279  and  _281
REMARK   96  A    between atoms: _281  and  _282
REMARK   97  A    between atoms: _281  and  _284
REMARK   98  A    between atoms: _284  and  _285
REMARK   99  A    between atoms: _290  and  _291
REMARK  100  A    between atoms: _293  and  _295
REMARK  101  A    between atoms: _295  and  _296
REMARK  102  A    between atoms: _295  and  _298
REMARK  103  A    between atoms: _298  and  _299
REMARK  104  A    between atoms: _301  and  _303
REMARK  105  A    between atoms: _303  and  _304
REMARK  106  A    between atoms: _303  and  _306
REMARK  107  A    between atoms: _306  and  _307
REMARK  108  A    between atoms: _307  and  _308
REMARK  109  A    between atoms: _311  and  _313
REMARK  110  A    between atoms: _313  and  _314
REMARK  111  A    between atoms: _313  and  _316
REMARK  112  A    between atoms: _316  and  _317
REMARK  113  A    between atoms: _323  and  _325
REMARK  114  A    between atoms: _325  and  _326
REMARK  115  A    between atoms: _328  and  _330
REMARK  116  A    between atoms: _330  and  _331
REMARK  117  A    between atoms: _330  and  _333
REMARK  118  A    between atoms: _333  and  _334
REMARK  119  A    between atoms: _334  and  _335
REMARK  120  A    between atoms: _340  and  _342
REMARK  121  A    between atoms: _342  and  _343
REMARK  122  A    between atoms: _342  and  _345
REMARK  123  A    between atoms: _345  and  _346
REMARK  124  A    between atoms: _346  and  _347
REMARK  125  A    between atoms: _347  and  _348
REMARK  126  A    between atoms: _348  and  _349
REMARK  127  A    between atoms: _353  and  _355
REMARK  128  A    between atoms: _355  and  _356
REMARK  129  A    between atoms: _355  and  _358
REMARK  130  A    between atoms: _358  and  _359
REMARK  131  A    between atoms: _361  and  _363
REMARK  132  A    between atoms: _363  and  _364
REMARK  133  A    between atoms: _363  and  _366
REMARK  134  A    between atoms: _366  and  _367
REMARK  135  A    between atoms: _370  and  _372
REMARK  136  A    between atoms: _372  and  _373
REMARK  137  A    between atoms: _372  and  _375
REMARK  138  A    between atoms: _375  and  _376
REMARK  139  A    between atoms: _386  and  _388
REMARK  140  A    between atoms: _388  and  _389
REMARK  141  A    between atoms: _388  and  _391
REMARK  142  A    between atoms: _391  and  _392
REMARK  143  A    between atoms: _392  and  _393
REMARK  144  A    between atoms: _398  and  _400
REMARK  145  A    between atoms: _400  and  _401
REMARK  146  A    between atoms: _400  and  _403
REMARK  147  A    between atoms: _403  and  _404
REMARK                            x       y       z     vdW  Elec       q    Type
REMARK                         _______ _______ _______ _____ _____    ______ ____
ROOT
ATOM      1  CG  TRP A   1      36.494  44.158  -7.303  0.00  0.00    -0.002 A 
ATOM      2  CD2 TRP A   1      35.844  44.421  -6.029  0.00  0.00    +0.013 A 
ATOM      3  CE3 TRP A   1      36.273  44.963  -4.800  0.00  0.00    +0.001 A 
ATOM      4  CZ3 TRP A   1      35.346  45.057  -3.739  0.00  0.00    +0.000 A 
ATOM      5  CH2 TRP A   1      34.020  44.604  -3.894  0.00  0.00    +0.001 A 
ATOM      6  CZ2 TRP A   1      33.575  44.076  -5.089  0.00  0.00    +0.017 A 
ATOM      7  CE2 TRP A   1      34.502  43.983  -6.149  0.00  0.00    +0.056 A 
ATOM      8  NE1 TRP A   1      34.347  43.494  -7.423  0.00  0.00    -0.352 N 
ATOM      9  HE1 TRP A   1      33.466  43.101  -7.812  0.00  0.00    +0.166 HD
ATOM     10  CD1 TRP A   1      35.536  43.605  -8.104  0.00  0.00    +0.068 A 
ENDROOT
BRANCH   1  11
ATOM     11  CB  TRP A   1      37.938  44.459  -7.687  0.00  0.00    +0.053 C 
BRANCH  11  12
ATOM     12  CA  TRP A   1      38.352  43.921  -9.071  0.00  0.00    +0.137 C 
BRANCH  12  13
ATOM     13  N   TRP A   1      38.320  42.447  -9.165  0.00  0.00    -0.239 NA
ATOM     14  H   TRP A   1      38.728  41.857  -8.412  0.00  0.00    +0.142 HD
ENDBRANCH  12  13
BRANCH  12  15
ATOM     15  C   TRP A   1      39.675  44.517  -9.580  0.00  0.00    +0.224 C 
ATOM     16  O   TRP A   1      39.978  45.688  -9.334  0.00  0.00    -0.287 OA
ENDBRANCH  12  15
ENDBRANCH  11  12
ENDBRANCH   1  11
TORSDOF 4
REMARK  Name = ../refined-set-2016/2vo5/2vo5_pocket.pdb
REMARK  147 active torsions:
REMARK  status: ('A' for Active; 'I' for Inactive)
REMARK    1  A    between atoms: _1  and  _3
REMARK    2  A    between atoms: _3  and  _4
REMARK    3  A    between atoms: _3  and  _6
REMARK    4  A    between atoms: _6  and  _7
REMARK    5  A    between atoms: _10  and  _12
REMARK    6  A    between atoms: _12  and  _13
REMARK    7  A    between atoms: _12  and  _15
REMARK    8  A    between atoms: _15  and  _16
REMARK    9  A    between atoms: _21  and  _23
REMARK   10  A    between atoms: _23  and  _24
REMARK   11  A    between atoms: _23  and  _26
REMARK   12  A    between atoms: _26  and  _27
REMARK   13  A    between atoms: _37  and  _39
REMARK   14  A    between atoms: _39  and  _40
REMARK   15  A    between atoms: _39  and  _42
REMARK   16  A    between atoms: _42  and  _43
REMARK   17  A    between atoms: _46  and  _48
REMARK   18  A    between atoms: _48  and  _49
REMARK   19  A    between atoms: _48  and  _51
REMARK   20  A    between atoms: _51  and  _52
REMARK   21  A    between atoms: _62  and  _64
REMARK   22  A    between atoms: _64  and  _65
REMARK   23  A    between atoms: _67  and  _69
REMARK   24  A    between atoms: _69  and  _70
REMARK   25  A    between atoms: _69  and  _72
REMARK   26  A    between atoms: _72  and  _73
REMARK   27  A    between atoms: _78  and  _80
REMARK   28  A    between atoms: _80  and  _81
REMARK   29  A    between atoms: _80  and  _83
REMARK   30  A    between atoms: _83  and  _84
REMARK   31  A    between atoms: _87  and  _89
REMARK   32  A    between atoms: _89  and  _90
REMARK   33  A    between atoms: _89  and  _92
REMARK   34  A    between atoms: _92  and  _93
REMARK   35  A    between atoms: _93  and  _94
REMARK   36  A    between atoms: _94  and  _95
REMARK   37  A    between atoms: _104  and  _106
REMARK   38  A    between atoms: _106  and  _107
REMARK   39  A    between atoms: _106  and  _109
REMARK   40  A    between atoms: _109  and  _110
REMARK   41  A    between atoms: _120  and  _122
REMARK   42  A    between atoms: _122  and  _123
REMARK   43  A    between atoms: _125  and  _127
REMARK   44  A    between atoms: _127  and  _128
REMARK   45  A    between atoms: _130  and  _132
REMARK   46  A    between atoms: _132  and  _133
REMARK   47  A    between atoms: _132  and  _135
REMARK   48  A    between atoms: _135  and  _136
REMARK   49  A    between atoms: _139  and  _141
REMARK   50  A    between atoms: _141  and  _142
REMARK   51  A    between atoms: _145  and  _147
REMARK   52  A    between atoms: _147  and  _148
REMARK   53  A    between atoms: _147  and  _150
REMARK   54  A    between atoms: _152  and  _154
REMARK   55  A    between atoms: _154  and  _155
REMARK   56  A    between atoms: _154  and  _157
REMARK   57  A    between atoms: _157  and  _158
REMARK   58  A    between atoms: _163  and  _165
REMARK   59  A    between atoms: _165  and  _166
REMARK   60  A    between atoms: _165  and  _168
REMARK   61  A    between atoms: _168  and  _169
REMARK   62  A    between atoms: _169  and  _170
REMARK   63  A    between atoms: _173  and  _175
REMARK   64  A    between atoms: _175  and  _176
REMARK   65  A    between atoms: _175  and  _178
REMARK   66  A    between atoms: _178  and  _179
REMARK   67  A    between atoms: _179  and  _180
REMARK   68  A    between atoms: _183  and  _185
REMARK   69  A    between atoms: _185  and  _186
REMARK   70  A    between atoms: _189  and  _191
REMARK   71  A    between atoms: _191  and  _192
REMARK   72  A    between atoms: _191  and  _194
REMARK   73  A    between atoms: _194  and  _195
REMARK   74  A    between atoms: _205  and  _207
REMARK   75  A    between atoms: _207  and  _208
REMARK   76  A    between atoms: _207  and  _210
REMARK   77  A    between atoms: _210  and  _211
REMARK   78  A    between atoms: _214  and  _215
REMARK   79  A    between atoms: _220  and  _222
REMARK   80  A    between atoms: _222  and  _223
REMARK   81  A    between atoms: _222  and  _225
REMARK   82  A    between atoms: _225  and  _226
REMARK   83  A    between atoms: _236  and  _238
REMARK   84  A    between atoms: _238  and  _239
REMARK   85  A    between atoms: _238  and  _241
REMARK   86  A    between atoms: _241  and  _242
REMARK   87  A    between atoms: _247  and  _249
REMARK   88  A    between atoms: _249  and  _250
REMARK   89  A    between atoms: _249  and  _252
REMARK   90  A    between atoms: _252  and  _253
REMARK   91  A    between atoms: _263  and  _265
REMARK   92  A    between atoms: _265  and  _266
REMARK   93  A    between atoms: _265  and  _268
REMARK   94  A    between atoms: _268  and  _269
REMARK   95  A    between atoms: _279  and  _281
REMARK   96  A    between atoms: _281  and  _282
REMARK   97  A    between atoms: _281  and  _284
REMARK   98  A    between atoms: _284  and  _285
REMARK   99  A    between atoms: _290  and  _291
REMARK  100  A    between atoms: _293  and  _295
REMARK  101  A    between atoms: _295  and  _296
REMARK  102  A    between atoms: _295  and  _298
REMARK  103  A    between atoms: _298  and  _299
REMARK  104  A    between atoms: _301  and  _303
REMARK  105  A    between atoms: _303  and  _304
REMARK  106  A    between atoms: _303  and  _306
REMARK  107  A    between atoms: _306  and  _307
REMARK  108  A    between atoms: _307  and  _308
REMARK  109  A    between atoms: _311  and  _313
REMARK  110  A    between atoms: _313  and  _314
REMARK  111  A    between atoms: _313  and  _316
REMARK  112  A    between atoms: _316  and  _317
REMARK  113  A    between atoms: _323  and  _325
REMARK  114  A    between atoms: _325  and  _326
REMARK  115  A    between atoms: _328  and  _330
REMARK  116  A    between atoms: _330  and  _331
REMARK  117  A    between atoms: _330  and  _333
REMARK  118  A    between atoms: _333  and  _334
REMARK  119  A    between atoms: _334  and  _335
REMARK  120  A    between atoms: _340  and  _342
REMARK  121  A    between atoms: _342  and  _343
REMARK  122  A    between atoms: _342  and  _345
REMARK  123  A    between atoms: _345  and  _346
REMARK  124  A    between atoms: _346  and  _347
REMARK  125  A    between atoms: _347  and  _348
REMARK  126  A    between atoms: _348  and  _349
REMARK  127  A    between atoms: _353  and  _355
REMARK  128  A    between atoms: _355  and  _356
REMARK  129  A    between atoms: _355  and  _358
REMARK  130  A    between atoms: _358  and  _359
REMARK  131  A    between atoms: _361  and  _363
REMARK  132  A    between atoms: _363  and  _364
REMARK  133  A    between atoms: _363  and  _366
REMARK  134  A    between atoms: _366  and  _367
REMARK  135  A    between atoms: _370  and  _372
REMARK  136  A    between atoms: _372  and  _373
REMARK  137  A    between atoms: _372  and  _375
REMARK  138  A    between atoms: _375  and  _376
REMARK  139  A    between atoms: _386  and  _388
REMARK  140  A    between atoms: _388  and  _389
REMARK  141  A    between atoms: _388  and  _391
REMARK  142  A    between atoms: _391  and  _392
REMARK  143  A    between atoms: _392  and  _393
REMARK  144  A    between atoms: _398  and  _400
REMARK  145  A    between atoms: _400  and  _401
REMARK  146  A    between atoms: _400  and  _403
REMARK  147  A    between atoms: _403  and  _404
REMARK                            x       y       z     vdW  Elec       q    Type
REMARK                         _______ _______ _______ _____ _____    ______ ____
ROOT
ATOM      1  C   SER A   1      29.517  37.454  -0.698  0.00  0.00    +0.244 C 
ATOM      2  O   SER A   1      29.981  38.505  -0.313  0.00  0.00    -0.273 OA
ATOM      3  N   PRO A   2      29.354  37.182  -2.003  0.00  0.00    -0.273 N 
ATOM      4  CA  PRO A   2      28.916  35.896  -2.575  0.00  0.00    +0.140 C 
ATOM      5  CB  PRO A   2      28.419  36.299  -3.960  0.00  0.00    +0.030 C 
ATOM      6  CG  PRO A   2      29.361  37.375  -4.374  0.00  0.00    +0.024 C 
ATOM      7  CD  PRO A   2      29.694  38.157  -3.072  0.00  0.00    +0.094 C 
ENDROOT
BRANCH   4   8
ATOM      8  C   PRO A   2      30.082  34.920  -2.695  0.00  0.00    +0.227 C 
ATOM      9  O   PRO A   2      31.195  35.308  -3.009  0.00  0.00    -0.286 OA
ENDBRANCH   4   8
BRANCH   1  10
ATOM     10  CA  SER A   1      29.131  36.383   0.334  0.00  0.00    +0.175 C 
BRANCH  10  11
ATOM     11  N   SER A   1      30.314  36.080   1.156  0.00  0.00    -0.236 NA
ATOM     12  H   SER A   1      30.701  36.828   1.766  0.00  0.00    +0.142 HD
ENDBRANCH  10  11
BRANCH  10  13
ATOM     13  CB  SER A   1      27.983  36.944   1.185  0.00  0.00    +0.163 C 
BRANCH  13  14
ATOM     14  OG  SER A   1      26.798  37.109   0.414  0.00  0.00    -0.380 OA
ATOM     15  H   SER A   1      26.519  36.232   0.048  0.00  0.00    +0.211 HD
ENDBRANCH  13  14
ENDBRANCH  10  13
ENDBRANCH   1  10
TORSDOF 5
REMARK  Name = ../refined-set-2016/2vo5/2vo5_pocket.pdb
REMARK  147 active torsions:
REMARK  status: ('A' for Active; 'I' for Inactive)
REMARK    1  A    between atoms: _1  and  _3
REMARK    2  A    between atoms: _3  and  _4
REMARK    3  A    between atoms: _3  and  _6
REMARK    4  A    between atoms: _6  and  _7
REMARK    5  A    between atoms: _10  and  _12
REMARK    6  A    between atoms: _12  and  _13
REMARK    7  A    between atoms: _12  and  _15
REMARK    8  A    between atoms: _15  and  _16
REMARK    9  A    between atoms: _21  and  _23
REMARK   10  A    between atoms: _23  and  _24
REMARK   11  A    between atoms: _23  and  _26
REMARK   12  A    between atoms: _26  and  _27
REMARK   13  A    between atoms: _37  and  _39
REMARK   14  A    between atoms: _39  and  _40
REMARK   15  A    between atoms: _39  and  _42
REMARK   16  A    between atoms: _42  and  _43
REMARK   17  A    between atoms: _46  and  _48
REMARK   18  A    between atoms: _48  and  _49
REMARK   19  A    between atoms: _48  and  _51
REMARK   20  A    between atoms: _51  and  _52
REMARK   21  A    between atoms: _62  and  _64
REMARK   22  A    between atoms: _64  and  _65
REMARK   23  A    between atoms: _67  and  _69
REMARK   24  A    between atoms: _69  and  _70
REMARK   25  A    between atoms: _69  and  _72
REMARK   26  A    between atoms: _72  and  _73
REMARK   27  A    between atoms: _78  and  _80
REMARK   28  A    between atoms: _80  and  _81
REMARK   29  A    between atoms: _80  and  _83
REMARK   30  A    between atoms: _83  and  _84
REMARK   31  A    between atoms: _87  and  _89
REMARK   32  A    between atoms: _89  and  _90
REMARK   33  A    between atoms: _89  and  _92
REMARK   34  A    between atoms: _92  and  _93
REMARK   35  A    between atoms: _93  and  _94
REMARK   36  A    between atoms: _94  and  _95
REMARK   37  A    between atoms: _104  and  _106
REMARK   38  A    between atoms: _106  and  _107
REMARK   39  A    between atoms: _106  and  _109
REMARK   40  A    between atoms: _109  and  _110
REMARK   41  A    between atoms: _120  and  _122
REMARK   42  A    between atoms: _122  and  _123
REMARK   43  A    between atoms: _125  and  _127
REMARK   44  A    between atoms: _127  and  _128
REMARK   45  A    between atoms: _130  and  _132
REMARK   46  A    between atoms: _132  and  _133
REMARK   47  A    between atoms: _132  and  _135
REMARK   48  A    between atoms: _135  and  _136
REMARK   49  A    between atoms: _139  and  _141
REMARK   50  A    between atoms: _141  and  _142
REMARK   51  A    between atoms: _145  and  _147
REMARK   52  A    between atoms: _147  and  _148
REMARK   53  A    between atoms: _147  and  _150
REMARK   54  A    between atoms: _152  and  _154
REMARK   55  A    between atoms: _154  and  _155
REMARK   56  A    between atoms: _154  and  _157
REMARK   57  A    between atoms: _157  and  _158
REMARK   58  A    between atoms: _163  and  _165
REMARK   59  A    between atoms: _165  and  _166
REMARK   60  A    between atoms: _165  and  _168
REMARK   61  A    between atoms: _168  and  _169
REMARK   62  A    between atoms: _169  and  _170
REMARK   63  A    between atoms: _173  and  _175
REMARK   64  A    between atoms: _175  and  _176
REMARK   65  A    between atoms: _175  and  _178
REMARK   66  A    between atoms: _178  and  _179
REMARK   67  A    between atoms: _179  and  _180
REMARK   68  A    between atoms: _183  and  _185
REMARK   69  A    between atoms: _185  and  _186
REMARK   70  A    between atoms: _189  and  _191
REMARK   71  A    between atoms: _191  and  _192
REMARK   72  A    between atoms: _191  and  _194
REMARK   73  A    between atoms: _194  and  _195
REMARK   74  A    between atoms: _205  and  _207
REMARK   75  A    between atoms: _207  and  _208
REMARK   76  A    between atoms: _207  and  _210
REMARK   77  A    between atoms: _210  and  _211
REMARK   78  A    between atoms: _214  and  _215
REMARK   79  A    between atoms: _220  and  _222
REMARK   80  A    between atoms: _222  and  _223
REMARK   81  A    between atoms: _222  and  _225
REMARK   82  A    between atoms: _225  and  _226
REMARK   83  A    between atoms: _236  and  _238
REMARK   84  A    between atoms: _238  and  _239
REMARK   85  A    between atoms: _238  and  _241
REMARK   86  A    between atoms: _241  and  _242
REMARK   87  A    between atoms: _247  and  _249
REMARK   88  A    between atoms: _249  and  _250
REMARK   89  A    between atoms: _249  and  _252
REMARK   90  A    between atoms: _252  and  _253
REMARK   91  A    between atoms: _263  and  _265
REMARK   92  A    between atoms: _265  and  _266
REMARK   93  A    between atoms: _265  and  _268
REMARK   94  A    between atoms: _268  and  _269
REMARK   95  A    between atoms: _279  and  _281
REMARK   96  A    between atoms: _281  and  _282
REMARK   97  A    between atoms: _281  and  _284
REMARK   98  A    between atoms: _284  and  _285
REMARK   99  A    between atoms: _290  and  _291
REMARK  100  A    between atoms: _293  and  _295
REMARK  101  A    between atoms: _295  and  _296
REMARK  102  A    between atoms: _295  and  _298
REMARK  103  A    between atoms: _298  and  _299
REMARK  104  A    between atoms: _301  and  _303
REMARK  105  A    between atoms: _303  and  _304
REMARK  106  A    between atoms: _303  and  _306
REMARK  107  A    between atoms: _306  and  _307
REMARK  108  A    between atoms: _307  and  _308
REMARK  109  A    between atoms: _311  and  _313
REMARK  110  A    between atoms: _313  and  _314
REMARK  111  A    between atoms: _313  and  _316
REMARK  112  A    between atoms: _316  and  _317
REMARK  113  A    between atoms: _323  and  _325
REMARK  114  A    between atoms: _325  and  _326
REMARK  115  A    between atoms: _328  and  _330
REMARK  116  A    between atoms: _330  and  _331
REMARK  117  A    between atoms: _330  and  _333
REMARK  118  A    between atoms: _333  and  _334
REMARK  119  A    between atoms: _334  and  _335
REMARK  120  A    between atoms: _340  and  _342
REMARK  121  A    between atoms: _342  and  _343
REMARK  122  A    between atoms: _342  and  _345
REMARK  123  A    between atoms: _345  and  _346
REMARK  124  A    between atoms: _346  and  _347
REMARK  125  A    between atoms: _347  and  _348
REMARK  126  A    between atoms: _348  and  _349
REMARK  127  A    between atoms: _353  and  _355
REMARK  128  A    between atoms: _355  and  _356
REMARK  129  A    between atoms: _355  and  _358
REMARK  130  A    between atoms: _358  and  _359
REMARK  131  A    between atoms: _361  and  _363
REMARK  132  A    between atoms: _363  and  _364
REMARK  133  A    between atoms: _363  and  _366
REMARK  134  A    between atoms: _366  and  _367
REMARK  135  A    between atoms: _370  and  _372
REMARK  136  A    between atoms: _372  and  _373
REMARK  137  A    between atoms: _372  and  _375
REMARK  138  A    between atoms: _375  and  _376
REMARK  139  A    between atoms: _386  and  _388
REMARK  140  A    between atoms: _388  and  _389
REMARK  141  A    between atoms: _388  and  _391
REMARK  142  A    between atoms: _391  and  _392
REMARK  143  A    between atoms: _392  and  _393
REMARK  144  A    between atoms: _398  and  _400
REMARK  145  A    between atoms: _400  and  _401
REMARK  146  A    between atoms: _400  and  _403
REMARK  147  A    between atoms: _403  and  _404
REMARK                            x       y       z     vdW  Elec       q    Type
REMARK                         _______ _______ _______ _____ _____    ______ ____
ROOT
ATOM      1  CG  TRP A   1      27.449  41.839 -11.222  0.00  0.00    -0.002 A 
ATOM      2  CD1 TRP A   1      28.245  42.371 -10.255  0.00  0.00    +0.068 A 
ATOM      3  NE1 TRP A   1      28.818  43.549 -10.704  0.00  0.00    -0.352 N 
ATOM      4  HE1 TRP A   1      29.466  44.150 -10.156  0.00  0.00    +0.166 HD
ATOM      5  CE2 TRP A   1      28.397  43.798 -11.983  0.00  0.00    +0.056 A 
ATOM      6  CZ2 TRP A   1      28.702  44.867 -12.845  0.00  0.00    +0.017 A 
ATOM      7  CH2 TRP A   1      28.138  44.843 -14.104  0.00  0.00    +0.001 A 
ATOM      8  CZ3 TRP A   1      27.235  43.818 -14.497  0.00  0.00    +0.000 A 
ATOM      9  CE3 TRP A   1      26.930  42.763 -13.630  0.00  0.00    +0.001 A 
ATOM     10  CD2 TRP A   1      27.522  42.744 -12.350  0.00  0.00    +0.013 A 
ENDROOT
BRANCH   1  11
ATOM     11  CB  TRP A   1      26.620  40.591 -11.112  0.00  0.00    +0.053 C 
BRANCH  11  12
ATOM     12  CA  TRP A   1      27.164  39.265 -11.695  0.00  0.00    +0.137 C 
BRANCH  12  13
ATOM     13  N   TRP A   1      28.197  38.657 -10.866  0.00  0.00    -0.239 NA
ATOM     14  H   TRP A   1      28.651  39.219 -10.118  0.00  0.00    +0.142 HD
ENDBRANCH  12  13
BRANCH  12  15
ATOM     15  C   TRP A   1      27.384  39.322 -13.217  0.00  0.00    +0.224 C 
ATOM     16  O   TRP A   1      26.425  39.294 -13.963  0.00  0.00    -0.287 OA
ENDBRANCH  12  15
ENDBRANCH  11  12
ENDBRANCH   1  11
TORSDOF 4
REMARK  Name = ../refined-set-2016/2vo5/2vo5_pocket.pdb
REMARK  147 active torsions:
REMARK  status: ('A' for Active; 'I' for Inactive)
REMARK    1  A    between atoms: _1  and  _3
REMARK    2  A    between atoms: _3  and  _4
REMARK    3  A    between atoms: _3  and  _6
REMARK    4  A    between atoms: _6  and  _7
REMARK    5  A    between atoms: _10  and  _12
REMARK    6  A    between atoms: _12  and  _13
REMARK    7  A    between atoms: _12  and  _15
REMARK    8  A    between atoms: _15  and  _16
REMARK    9  A    between atoms: _21  and  _23
REMARK   10  A    between atoms: _23  and  _24
REMARK   11  A    between atoms: _23  and  _26
REMARK   12  A    between atoms: _26  and  _27
REMARK   13  A    between atoms: _37  and  _39
REMARK   14  A    between atoms: _39  and  _40
REMARK   15  A    between atoms: _39  and  _42
REMARK   16  A    between atoms: _42  and  _43
REMARK   17  A    between atoms: _46  and  _48
REMARK   18  A    between atoms: _48  and  _49
REMARK   19  A    between atoms: _48  and  _51
REMARK   20  A    between atoms: _51  and  _52
REMARK   21  A    between atoms: _62  and  _64
REMARK   22  A    between atoms: _64  and  _65
REMARK   23  A    between atoms: _67  and  _69
REMARK   24  A    between atoms: _69  and  _70
REMARK   25  A    between atoms: _69  and  _72
REMARK   26  A    between atoms: _72  and  _73
REMARK   27  A    between atoms: _78  and  _80
REMARK   28  A    between atoms: _80  and  _81
REMARK   29  A    between atoms: _80  and  _83
REMARK   30  A    between atoms: _83  and  _84
REMARK   31  A    between atoms: _87  and  _89
REMARK   32  A    between atoms: _89  and  _90
REMARK   33  A    between atoms: _89  and  _92
REMARK   34  A    between atoms: _92  and  _93
REMARK   35  A    between atoms: _93  and  _94
REMARK   36  A    between atoms: _94  and  _95
REMARK   37  A    between atoms: _104  and  _106
REMARK   38  A    between atoms: _106  and  _107
REMARK   39  A    between atoms: _106  and  _109
REMARK   40  A    between atoms: _109  and  _110
REMARK   41  A    between atoms: _120  and  _122
REMARK   42  A    between atoms: _122  and  _123
REMARK   43  A    between atoms: _125  and  _127
REMARK   44  A    between atoms: _127  and  _128
REMARK   45  A    between atoms: _130  and  _132
REMARK   46  A    between atoms: _132  and  _133
REMARK   47  A    between atoms: _132  and  _135
REMARK   48  A    between atoms: _135  and  _136
REMARK   49  A    between atoms: _139  and  _141
REMARK   50  A    between atoms: _141  and  _142
REMARK   51  A    between atoms: _145  and  _147
REMARK   52  A    between atoms: _147  and  _148
REMARK   53  A    between atoms: _147  and  _150
REMARK   54  A    between atoms: _152  and  _154
REMARK   55  A    between atoms: _154  and  _155
REMARK   56  A    between atoms: _154  and  _157
REMARK   57  A    between atoms: _157  and  _158
REMARK   58  A    between atoms: _163  and  _165
REMARK   59  A    between atoms: _165  and  _166
REMARK   60  A    between atoms: _165  and  _168
REMARK   61  A    between atoms: _168  and  _169
REMARK   62  A    between atoms: _169  and  _170
REMARK   63  A    between atoms: _173  and  _175
REMARK   64  A    between atoms: _175  and  _176
REMARK   65  A    between atoms: _175  and  _178
REMARK   66  A    between atoms: _178  and  _179
REMARK   67  A    between atoms: _179  and  _180
REMARK   68  A    between atoms: _183  and  _185
REMARK   69  A    between atoms: _185  and  _186
REMARK   70  A    between atoms: _189  and  _191
REMARK   71  A    between atoms: _191  and  _192
REMARK   72  A    between atoms: _191  and  _194
REMARK   73  A    between atoms: _194  and  _195
REMARK   74  A    between atoms: _205  and  _207
REMARK   75  A    between atoms: _207  and  _208
REMARK   76  A    between atoms: _207  and  _210
REMARK   77  A    between atoms: _210  and  _211
REMARK   78  A    between atoms: _214  and  _215
REMARK   79  A    between atoms: _220  and  _222
REMARK   80  A    between atoms: _222  and  _223
REMARK   81  A    between atoms: _222  and  _225
REMARK   82  A    between atoms: _225  and  _226
REMARK   83  A    between atoms: _236  and  _238
REMARK   84  A    between atoms: _238  and  _239
REMARK   85  A    between atoms: _238  and  _241
REMARK   86  A    between atoms: _241  and  _242
REMARK   87  A    between atoms: _247  and  _249
REMARK   88  A    between atoms: _249  and  _250
REMARK   89  A    between atoms: _249  and  _252
REMARK   90  A    between atoms: _252  and  _253
REMARK   91  A    between atoms: _263  and  _265
REMARK   92  A    between atoms: _265  and  _266
REMARK   93  A    between atoms: _265  and  _268
REMARK   94  A    between atoms: _268  and  _269
REMARK   95  A    between atoms: _279  and  _281
REMARK   96  A    between atoms: _281  and  _282
REMARK   97  A    between atoms: _281  and  _284
REMARK   98  A    between atoms: _284  and  _285
REMARK   99  A    between atoms: _290  and  _291
REMARK  100  A    between atoms: _293  and  _295
REMARK  101  A    between atoms: _295  and  _296
REMARK  102  A    between atoms: _295  and  _298
REMARK  103  A    between atoms: _298  and  _299
REMARK  104  A    between atoms: _301  and  _303
REMARK  105  A    between atoms: _303  and  _304
REMARK  106  A    between atoms: _303  and  _306
REMARK  107  A    between atoms: _306  and  _307
REMARK  108  A    between atoms: _307  and  _308
REMARK  109  A    between atoms: _311  and  _313
REMARK  110  A    between atoms: _313  and  _314
REMARK  111  A    between atoms: _313  and  _316
REMARK  112  A    between atoms: _316  and  _317
REMARK  113  A    between atoms: _323  and  _325
REMARK  114  A    between atoms: _325  and  _326
REMARK  115  A    between atoms: _328  and  _330
REMARK  116  A    between atoms: _330  and  _331
REMARK  117  A    between atoms: _330  and  _333
REMARK  118  A    between atoms: _333  and  _334
REMARK  119  A    between atoms: _334  and  _335
REMARK  120  A    between atoms: _340  and  _342
REMARK  121  A    between atoms: _342  and  _343
REMARK  122  A    between atoms: _342  and  _345
REMARK  123  A    between atoms: _345  and  _346
REMARK  124  A    between atoms: _346  and  _347
REMARK  125  A    between atoms: _347  and  _348
REMARK  126  A    between atoms: _348  and  _349
REMARK  127  A    between atoms: _353  and  _355
REMARK  128  A    between atoms: _355  and  _356
REMARK  129  A    between atoms: _355  and  _358
REMARK  130  A    between atoms: _358  and  _359
REMARK  131  A    between atoms: _361  and  _363
REMARK  132  A    between atoms: _363  and  _364
REMARK  133  A    between atoms: _363  and  _366
REMARK  134  A    between atoms: _366  and  _367
REMARK  135  A    between atoms: _370  and  _372
REMARK  136  A    between atoms: _372  and  _373
REMARK  137  A    between atoms: _372  and  _375
REMARK  138  A    between atoms: _375  and  _376
REMARK  139  A    between atoms: _386  and  _388
REMARK  140  A    between atoms: _388  and  _389
REMARK  141  A    between atoms: _388  and  _391
REMARK  142  A    between atoms: _391  and  _392
REMARK  143  A    between atoms: _392  and  _393
REMARK  144  A    between atoms: _398  and  _400
REMARK  145  A    between atoms: _400  and  _401
REMARK  146  A    between atoms: _400  and  _403
REMARK  147  A    between atoms: _403  and  _404
REMARK                            x       y       z     vdW  Elec       q    Type
REMARK                         _______ _______ _______ _____ _____    ______ ____
ROOT
ATOM      1  CB  HIS A   1      26.240  40.586  -4.722  0.00  0.00    +0.072 C 
ENDROOT
BRANCH   1   2
ATOM      2  CG  HIS A   1      26.548  40.256  -3.289  0.00  0.00    +0.082 A 
ATOM      3  CD2 HIS A   1      26.056  39.304  -2.460  0.00  0.00    +0.115 A 
ATOM      4  NE2 HIS A   1      26.695  39.450  -1.247  0.00  0.00    -0.221 NA
ATOM      5  CE1 HIS A   1      27.556  40.449  -1.331  0.00  0.00    +0.199 A 
ATOM      6  ND1 HIS A   1      27.484  40.956  -2.550  0.00  0.00    -0.227 NA
ENDBRANCH   1   2
BRANCH   1   7
ATOM      7  CA  HIS A   1      24.985  39.883  -5.288  0.00  0.00    +0.139 C 
BRANCH   7   8
ATOM      8  N   HIS A   1      25.198  38.436  -5.397  0.00  0.00    -0.239 NA
ATOM      9  H   HIS A   1      26.133  38.093  -5.698  0.00  0.00    +0.142 HD
ENDBRANCH   7   8
BRANCH   7  10
ATOM     10  C   HIS A   1      24.713  40.431  -6.718  0.00  0.00    +0.224 C 
ATOM     11  O   HIS A   1      25.643  40.715  -7.466  0.00  0.00    -0.287 OA
ENDBRANCH   7  10
ENDBRANCH   1   7
TORSDOF 4
REMARK  Name = ../refined-set-2016/2vo5/2vo5_pocket.pdb
REMARK  147 active torsions:
REMARK  status: ('A' for Active; 'I' for Inactive)
REMARK    1  A    between atoms: _1  and  _3
REMARK    2  A    between atoms: _3  and  _4
REMARK    3  A    between atoms: _3  and  _6
REMARK    4  A    between atoms: _6  and  _7
REMARK    5  A    between atoms: _10  and  _12
REMARK    6  A    between atoms: _12  and  _13
REMARK    7  A    between atoms: _12  and  _15
REMARK    8  A    between atoms: _15  and  _16
REMARK    9  A    between atoms: _21  and  _23
REMARK   10  A    between atoms: _23  and  _24
REMARK   11  A    between atoms: _23  and  _26
REMARK   12  A    between atoms: _26  and  _27
REMARK   13  A    between atoms: _37  and  _39
REMARK   14  A    between atoms: _39  and  _40
REMARK   15  A    between atoms: _39  and  _42
REMARK   16  A    between atoms: _42  and  _43
REMARK   17  A    between atoms: _46  and  _48
REMARK   18  A    between atoms: _48  and  _49
REMARK   19  A    between atoms: _48  and  _51
REMARK   20  A    between atoms: _51  and  _52
REMARK   21  A    between atoms: _62  and  _64
REMARK   22  A    between atoms: _64  and  _65
REMARK   23  A    between atoms: _67  and  _69
REMARK   24  A    between atoms: _69  and  _70
REMARK   25  A    between atoms: _69  and  _72
REMARK   26  A    between atoms: _72  and  _73
REMARK   27  A    between atoms: _78  and  _80
REMARK   28  A    between atoms: _80  and  _81
REMARK   29  A    between atoms: _80  and  _83
REMARK   30  A    between atoms: _83  and  _84
REMARK   31  A    between atoms: _87  and  _89
REMARK   32  A    between atoms: _89  and  _90
REMARK   33  A    between atoms: _89  and  _92
REMARK   34  A    between atoms: _92  and  _93
REMARK   35  A    between atoms: _93  and  _94
REMARK   36  A    between atoms: _94  and  _95
REMARK   37  A    between atoms: _104  and  _106
REMARK   38  A    between atoms: _106  and  _107
REMARK   39  A    between atoms: _106  and  _109
REMARK   40  A    between atoms: _109  and  _110
REMARK   41  A    between atoms: _120  and  _122
REMARK   42  A    between atoms: _122  and  _123
REMARK   43  A    between atoms: _125  and  _127
REMARK   44  A    between atoms: _127  and  _128
REMARK   45  A    between atoms: _130  and  _132
REMARK   46  A    between atoms: _132  and  _133
REMARK   47  A    between atoms: _132  and  _135
REMARK   48  A    between atoms: _135  and  _136
REMARK   49  A    between atoms: _139  and  _141
REMARK   50  A    between atoms: _141  and  _142
REMARK   51  A    between atoms: _145  and  _147
REMARK   52  A    between atoms: _147  and  _148
REMARK   53  A    between atoms: _147  and  _150
REMARK   54  A    between atoms: _152  and  _154
REMARK   55  A    between atoms: _154  and  _155
REMARK   56  A    between atoms: _154  and  _157
REMARK   57  A    between atoms: _157  and  _158
REMARK   58  A    between atoms: _163  and  _165
REMARK   59  A    between atoms: _165  and  _166
REMARK   60  A    between atoms: _165  and  _168
REMARK   61  A    between atoms: _168  and  _169
REMARK   62  A    between atoms: _169  and  _170
REMARK   63  A    between atoms: _173  and  _175
REMARK   64  A    between atoms: _175  and  _176
REMARK   65  A    between atoms: _175  and  _178
REMARK   66  A    between atoms: _178  and  _179
REMARK   67  A    between atoms: _179  and  _180
REMARK   68  A    between atoms: _183  and  _185
REMARK   69  A    between atoms: _185  and  _186
REMARK   70  A    between atoms: _189  and  _191
REMARK   71  A    between atoms: _191  and  _192
REMARK   72  A    between atoms: _191  and  _194
REMARK   73  A    between atoms: _194  and  _195
REMARK   74  A    between atoms: _205  and  _207
REMARK   75  A    between atoms: _207  and  _208
REMARK   76  A    between atoms: _207  and  _210
REMARK   77  A    between atoms: _210  and  _211
REMARK   78  A    between atoms: _214  and  _215
REMARK   79  A    between atoms: _220  and  _222
REMARK   80  A    between atoms: _222  and  _223
REMARK   81  A    between atoms: _222  and  _225
REMARK   82  A    between atoms: _225  and  _226
REMARK   83  A    between atoms: _236  and  _238
REMARK   84  A    between atoms: _238  and  _239
REMARK   85  A    between atoms: _238  and  _241
REMARK   86  A    between atoms: _241  and  _242
REMARK   87  A    between atoms: _247  and  _249
REMARK   88  A    between atoms: _249  and  _250
REMARK   89  A    between atoms: _249  and  _252
REMARK   90  A    between atoms: _252  and  _253
REMARK   91  A    between atoms: _263  and  _265
REMARK   92  A    between atoms: _265  and  _266
REMARK   93  A    between atoms: _265  and  _268
REMARK   94  A    between atoms: _268  and  _269
REMARK   95  A    between atoms: _279  and  _281
REMARK   96  A    between atoms: _281  and  _282
REMARK   97  A    between atoms: _281  and  _284
REMARK   98  A    between atoms: _284  and  _285
REMARK   99  A    between atoms: _290  and  _291
REMARK  100  A    between atoms: _293  and  _295
REMARK  101  A    between atoms: _295  and  _296
REMARK  102  A    between atoms: _295  and  _298
REMARK  103  A    between atoms: _298  and  _299
REMARK  104  A    between atoms: _301  and  _303
REMARK  105  A    between atoms: _303  and  _304
REMARK  106  A    between atoms: _303  and  _306
REMARK  107  A    between atoms: _306  and  _307
REMARK  108  A    between atoms: _307  and  _308
REMARK  109  A    between atoms: _311  and  _313
REMARK  110  A    between atoms: _313  and  _314
REMARK  111  A    between atoms: _313  and  _316
REMARK  112  A    between atoms: _316  and  _317
REMARK  113  A    between atoms: _323  and  _325
REMARK  114  A    between atoms: _325  and  _326
REMARK  115  A    between atoms: _328  and  _330
REMARK  116  A    between atoms: _330  and  _331
REMARK  117  A    between atoms: _330  and  _333
REMARK  118  A    between atoms: _333  and  _334
REMARK  119  A    between atoms: _334  and  _335
REMARK  120  A    between atoms: _340  and  _342
REMARK  121  A    between atoms: _342  and  _343
REMARK  122  A    between atoms: _342  and  _345
REMARK  123  A    between atoms: _345  and  _346
REMARK  124  A    between atoms: _346  and  _347
REMARK  125  A    between atoms: _347  and  _348
REMARK  126  A    between atoms: _348  and  _349
REMARK  127  A    between atoms: _353  and  _355
REMARK  128  A    between atoms: _355  and  _356
REMARK  129  A    between atoms: _355  and  _358
REMARK  130  A    between atoms: _358  and  _359
REMARK  131  A    between atoms: _361  and  _363
REMARK  132  A    between atoms: _363  and  _364
REMARK  133  A    between atoms: _363  and  _366
REMARK  134  A    between atoms: _366  and  _367
REMARK  135  A    between atoms: _370  and  _372
REMARK  136  A    between atoms: _372  and  _373
REMARK  137  A    between atoms: _372  and  _375
REMARK  138  A    between atoms: _375  and  _376
REMARK  139  A    between atoms: _386  and  _388
REMARK  140  A    between atoms: _388  and  _389
REMARK  141  A    between atoms: _388  and  _391
REMARK  142  A    between atoms: _391  and  _392
REMARK  143  A    between atoms: _392  and  _393
REMARK  144  A    between atoms: _398  and  _400
REMARK  145  A    between atoms: _400  and  _401
REMARK  146  A    between atoms: _400  and  _403
REMARK  147  A    between atoms: _403  and  _404
REMARK                            x       y       z     vdW  Elec       q    Type
REMARK                         _______ _______ _______ _____ _____    ______ ____
ROOT
ATOM      1  CG  TRP A   1      25.566  44.983  -6.899  0.00  0.00    -0.002 A 
ATOM      2  CD1 TRP A   1      25.939  44.166  -5.893  0.00  0.00    +0.068 A 
ATOM      3  NE1 TRP A   1      25.340  44.546  -4.721  0.00  0.00    -0.352 N 
ATOM      4  HE1 TRP A   1      25.454  44.071  -3.803  0.00  0.00    +0.166 HD
ATOM      5  CE2 TRP A   1      24.568  45.651  -4.954  0.00  0.00    +0.056 A 
ATOM      6  CZ2 TRP A   1      23.779  46.413  -4.075  0.00  0.00    +0.017 A 
ATOM      7  CH2 TRP A   1      23.071  47.469  -4.612  0.00  0.00    +0.001 A 
ATOM      8  CZ3 TRP A   1      23.153  47.784  -6.010  0.00  0.00    +0.000 A 
ATOM      9  CE3 TRP A   1      23.942  47.035  -6.856  0.00  0.00    +0.001 A 
ATOM     10  CD2 TRP A   1      24.681  45.953  -6.328  0.00  0.00    +0.013 A 
ENDROOT
BRANCH   1  11
ATOM     11  CB  TRP A   1      25.949  44.865  -8.356  0.00  0.00    +0.053 C 
BRANCH  11  12
ATOM     12  CA  TRP A   1      24.750  44.325  -9.177  0.00  0.00    +0.137 C 
BRANCH  12  13
ATOM     13  N   TRP A   1      24.524  42.906  -8.922  0.00  0.00    -0.239 NA
ATOM     14  H   TRP A   1      25.333  42.252  -8.911  0.00  0.00    +0.142 HD
ENDBRANCH  12  13
BRANCH  12  15
ATOM     15  C   TRP A   1      24.771  44.714 -10.666  0.00  0.00    +0.224 C 
ATOM     16  O   TRP A   1      25.342  45.727 -11.046  0.00  0.00    -0.287 OA
ENDBRANCH  12  15
ENDBRANCH  11  12
ENDBRANCH   1  11
TORSDOF 4
REMARK  Name = ../refined-set-2016/2vo5/2vo5_pocket.pdb
REMARK  147 active torsions:
REMARK  status: ('A' for Active; 'I' for Inactive)
REMARK    1  A    between atoms: _1  and  _3
REMARK    2  A    between atoms: _3  and  _4
REMARK    3  A    between atoms: _3  and  _6
REMARK    4  A    between atoms: _6  and  _7
REMARK    5  A    between atoms: _10  and  _12
REMARK    6  A    between atoms: _12  and  _13
REMARK    7  A    between atoms: _12  and  _15
REMARK    8  A    between atoms: _15  and  _16
REMARK    9  A    between atoms: _21  and  _23
REMARK   10  A    between atoms: _23  and  _24
REMARK   11  A    between atoms: _23  and  _26
REMARK   12  A    between atoms: _26  and  _27
REMARK   13  A    between atoms: _37  and  _39
REMARK   14  A    between atoms: _39  and  _40
REMARK   15  A    between atoms: _39  and  _42
REMARK   16  A    between atoms: _42  and  _43
REMARK   17  A    between atoms: _46  and  _48
REMARK   18  A    between atoms: _48  and  _49
REMARK   19  A    between atoms: _48  and  _51
REMARK   20  A    between atoms: _51  and  _52
REMARK   21  A    between atoms: _62  and  _64
REMARK   22  A    between atoms: _64  and  _65
REMARK   23  A    between atoms: _67  and  _69
REMARK   24  A    between atoms: _69  and  _70
REMARK   25  A    between atoms: _69  and  _72
REMARK   26  A    between atoms: _72  and  _73
REMARK   27  A    between atoms: _78  and  _80
REMARK   28  A    between atoms: _80  and  _81
REMARK   29  A    between atoms: _80  and  _83
REMARK   30  A    between atoms: _83  and  _84
REMARK   31  A    between atoms: _87  and  _89
REMARK   32  A    between atoms: _89  and  _90
REMARK   33  A    between atoms: _89  and  _92
REMARK   34  A    between atoms: _92  and  _93
REMARK   35  A    between atoms: _93  and  _94
REMARK   36  A    between atoms: _94  and  _95
REMARK   37  A    between atoms: _104  and  _106
REMARK   38  A    between atoms: _106  and  _107
REMARK   39  A    between atoms: _106  and  _109
REMARK   40  A    between atoms: _109  and  _110
REMARK   41  A    between atoms: _120  and  _122
REMARK   42  A    between atoms: _122  and  _123
REMARK   43  A    between atoms: _125  and  _127
REMARK   44  A    between atoms: _127  and  _128
REMARK   45  A    between atoms: _130  and  _132
REMARK   46  A    between atoms: _132  and  _133
REMARK   47  A    between atoms: _132  and  _135
REMARK   48  A    between atoms: _135  and  _136
REMARK   49  A    between atoms: _139  and  _141
REMARK   50  A    between atoms: _141  and  _142
REMARK   51  A    between atoms: _145  and  _147
REMARK   52  A    between atoms: _147  and  _148
REMARK   53  A    between atoms: _147  and  _150
REMARK   54  A    between atoms: _152  and  _154
REMARK   55  A    between atoms: _154  and  _155
REMARK   56  A    between atoms: _154  and  _157
REMARK   57  A    between atoms: _157  and  _158
REMARK   58  A    between atoms: _163  and  _165
REMARK   59  A    between atoms: _165  and  _166
REMARK   60  A    between atoms: _165  and  _168
REMARK   61  A    between atoms: _168  and  _169
REMARK   62  A    between atoms: _169  and  _170
REMARK   63  A    between atoms: _173  and  _175
REMARK   64  A    between atoms: _175  and  _176
REMARK   65  A    between atoms: _175  and  _178
REMARK   66  A    between atoms: _178  and  _179
REMARK   67  A    between atoms: _179  and  _180
REMARK   68  A    between atoms: _183  and  _185
REMARK   69  A    between atoms: _185  and  _186
REMARK   70  A    between atoms: _189  and  _191
REMARK   71  A    between atoms: _191  and  _192
REMARK   72  A    between atoms: _191  and  _194
REMARK   73  A    between atoms: _194  and  _195
REMARK   74  A    between atoms: _205  and  _207
REMARK   75  A    between atoms: _207  and  _208
REMARK   76  A    between atoms: _207  and  _210
REMARK   77  A    between atoms: _210  and  _211
REMARK   78  A    between atoms: _214  and  _215
REMARK   79  A    between atoms: _220  and  _222
REMARK   80  A    between atoms: _222  and  _223
REMARK   81  A    between atoms: _222  and  _225
REMARK   82  A    between atoms: _225  and  _226
REMARK   83  A    between atoms: _236  and  _238
REMARK   84  A    between atoms: _238  and  _239
REMARK   85  A    between atoms: _238  and  _241
REMARK   86  A    between atoms: _241  and  _242
REMARK   87  A    between atoms: _247  and  _249
REMARK   88  A    between atoms: _249  and  _250
REMARK   89  A    between atoms: _249  and  _252
REMARK   90  A    between atoms: _252  and  _253
REMARK   91  A    between atoms: _263  and  _265
REMARK   92  A    between atoms: _265  and  _266
REMARK   93  A    between atoms: _265  and  _268
REMARK   94  A    between atoms: _268  and  _269
REMARK   95  A    between atoms: _279  and  _281
REMARK   96  A    between atoms: _281  and  _282
REMARK   97  A    between atoms: _281  and  _284
REMARK   98  A    between atoms: _284  and  _285
REMARK   99  A    between atoms: _290  and  _291
REMARK  100  A    between atoms: _293  and  _295
REMARK  101  A    between atoms: _295  and  _296
REMARK  102  A    between atoms: _295  and  _298
REMARK  103  A    between atoms: _298  and  _299
REMARK  104  A    between atoms: _301  and  _303
REMARK  105  A    between atoms: _303  and  _304
REMARK  106  A    between atoms: _303  and  _306
REMARK  107  A    between atoms: _306  and  _307
REMARK  108  A    between atoms: _307  and  _308
REMARK  109  A    between atoms: _311  and  _313
REMARK  110  A    between atoms: _313  and  _314
REMARK  111  A    between atoms: _313  and  _316
REMARK  112  A    between atoms: _316  and  _317
REMARK  113  A    between atoms: _323  and  _325
REMARK  114  A    between atoms: _325  and  _326
REMARK  115  A    between atoms: _328  and  _330
REMARK  116  A    between atoms: _330  and  _331
REMARK  117  A    between atoms: _330  and  _333
REMARK  118  A    between atoms: _333  and  _334
REMARK  119  A    between atoms: _334  and  _335
REMARK  120  A    between atoms: _340  and  _342
REMARK  121  A    between atoms: _342  and  _343
REMARK  122  A    between atoms: _342  and  _345
REMARK  123  A    between atoms: _345  and  _346
REMARK  124  A    between atoms: _346  and  _347
REMARK  125  A    between atoms: _347  and  _348
REMARK  126  A    between atoms: _348  and  _349
REMARK  127  A    between atoms: _353  and  _355
REMARK  128  A    between atoms: _355  and  _356
REMARK  129  A    between atoms: _355  and  _358
REMARK  130  A    between atoms: _358  and  _359
REMARK  131  A    between atoms: _361  and  _363
REMARK  132  A    between atoms: _363  and  _364
REMARK  133  A    between atoms: _363  and  _366
REMARK  134  A    between atoms: _366  and  _367
REMARK  135  A    between atoms: _370  and  _372
REMARK  136  A    between atoms: _372  and  _373
REMARK  137  A    between atoms: _372  and  _375
REMARK  138  A    between atoms: _375  and  _376
REMARK  139  A    between atoms: _386  and  _388
REMARK  140  A    between atoms: _388  and  _389
REMARK  141  A    between atoms: _388  and  _391
REMARK  142  A    between atoms: _391  and  _392
REMARK  143  A    between atoms: _392  and  _393
REMARK  144  A    between atoms: _398  and  _400
REMARK  145  A    between atoms: _400  and  _401
REMARK  146  A    between atoms: _400  and  _403
REMARK  147  A    between atoms: _403  and  _404
REMARK                            x       y       z     vdW  Elec       q    Type
REMARK                         _______ _______ _______ _____ _____    ______ ____
ROOT
ATOM      1  C   TRP A   1      23.873  49.765 -11.440  0.00  0.00    +0.239 C 
ATOM      2  N   TYR A   2      24.904  49.146 -10.863  0.00  0.00    -0.298 N 
ATOM      3  H   TYR A   2      24.728  48.634  -9.975  0.00  0.00    +0.150 HD
ATOM      4  O   TRP A   1      23.973  50.363 -12.475  0.00  0.00    -0.274 OA
ENDROOT
BRANCH   1   5
ATOM      5  CA  TRP A   1      22.493  49.705 -10.745  0.00  0.00    +0.149 C 
BRANCH   5   6
ATOM      6  N   TRP A   1      21.654  48.623 -11.280  0.00  0.00    -0.238 NA
ATOM      7  H   TRP A   1      20.927  48.874 -11.980  0.00  0.00    +0.142 HD
ENDBRANCH   5   6
BRANCH   5   8
ATOM      8  CB  TRP A   1      22.576  49.741  -9.192  0.00  0.00    +0.054 C 
BRANCH   8   9
ATOM      9  CG  TRP A   1      23.195  51.067  -8.675  0.00  0.00    -0.002 A 
ATOM     10  CD1 TRP A   1      24.458  51.228  -8.203  0.00  0.00    +0.068 A 
ATOM     11  NE1 TRP A   1      24.671  52.547  -7.851  0.00  0.00    -0.352 N 
ATOM     12  HE1 TRP A   1      25.554  52.925  -7.453  0.00  0.00    +0.166 HD
ATOM     13  CE2 TRP A   1      23.539  53.285  -8.106  0.00  0.00    +0.056 A 
ATOM     14  CZ2 TRP A   1      23.279  54.684  -7.924  0.00  0.00    +0.017 A 
ATOM     15  CH2 TRP A   1      22.023  55.157  -8.270  0.00  0.00    +0.001 A 
ATOM     16  CZ3 TRP A   1      21.042  54.287  -8.784  0.00  0.00    +0.000 A 
ATOM     17  CE3 TRP A   1      21.306  52.904  -8.965  0.00  0.00    +0.001 A 
ATOM     18  CD2 TRP A   1      22.574  52.394  -8.619  0.00  0.00    +0.013 A 
ENDBRANCH   8   9
ENDBRANCH   5   8
ENDBRANCH   1   5
BRANCH   2  19
ATOM     19  CA  TYR A   2      26.274  49.140 -11.401  0.00  0.00    +0.141 C 
BRANCH  19  20
ATOM     20  C   TYR A   2      26.433  48.719 -12.856  0.00  0.00    +0.227 C 
ATOM     21  O   TYR A   2      27.330  49.178 -13.509  0.00  0.00    -0.286 OA
ENDBRANCH  19  20
BRANCH  19  22
ATOM     22  CB  TYR A   2      27.274  48.328 -10.519  0.00  0.00    +0.054 C 
BRANCH  22  23
ATOM     23  CG  TYR A   2      27.408  48.973  -9.197  0.00  0.00    -0.020 A 
ATOM     24  CD2 TYR A   2      26.697  48.481  -8.084  0.00  0.00    -0.001 A 
ATOM     25  CE2 TYR A   2      26.781  49.131  -6.826  0.00  0.00    +0.036 A 
ATOM     26  CZ  TYR A   2      27.530  50.306  -6.720  0.00  0.00    +0.134 A 
ATOM     27  CE1 TYR A   2      28.224  50.812  -7.832  0.00  0.00    +0.036 A 
ATOM     28  CD1 TYR A   2      28.159  50.142  -9.056  0.00  0.00    -0.001 A 
BRANCH  26  29
ATOM     29  OH  TYR A   2      27.601  50.971  -5.522  0.00  0.00    -0.506 OA
ATOM     30  HH  TYR A   2      27.995  50.374  -4.837  0.00  0.00    +0.292 HD
ENDBRANCH  26  29
ENDBRANCH  22  23
ENDBRANCH  19  22
ENDBRANCH   2  19
TORSDOF 9
REMARK  Name = ../refined-set-2016/2vo5/2vo5_pocket.pdb
REMARK  147 active torsions:
REMARK  status: ('A' for Active; 'I' for Inactive)
REMARK    1  A    between atoms: _1  and  _3
REMARK    2  A    between atoms: _3  and  _4
REMARK    3  A    between atoms: _3  and  _6
REMARK    4  A    between atoms: _6  and  _7
REMARK    5  A    between atoms: _10  and  _12
REMARK    6  A    between atoms: _12  and  _13
REMARK    7  A    between atoms: _12  and  _15
REMARK    8  A    between atoms: _15  and  _16
REMARK    9  A    between atoms: _21  and  _23
REMARK   10  A    between atoms: _23  and  _24
REMARK   11  A    between atoms: _23  and  _26
REMARK   12  A    between atoms: _26  and  _27
REMARK   13  A    between atoms: _37  and  _39
REMARK   14  A    between atoms: _39  and  _40
REMARK   15  A    between atoms: _39  and  _42
REMARK   16  A    between atoms: _42  and  _43
REMARK   17  A    between atoms: _46  and  _48
REMARK   18  A    between atoms: _48  and  _49
REMARK   19  A    between atoms: _48  and  _51
REMARK   20  A    between atoms: _51  and  _52
REMARK   21  A    between atoms: _62  and  _64
REMARK   22  A    between atoms: _64  and  _65
REMARK   23  A    between atoms: _67  and  _69
REMARK   24  A    between atoms: _69  and  _70
REMARK   25  A    between atoms: _69  and  _72
REMARK   26  A    between atoms: _72  and  _73
REMARK   27  A    between atoms: _78  and  _80
REMARK   28  A    between atoms: _80  and  _81
REMARK   29  A    between atoms: _80  and  _83
REMARK   30  A    between atoms: _83  and  _84
REMARK   31  A    between atoms: _87  and  _89
REMARK   32  A    between atoms: _89  and  _90
REMARK   33  A    between atoms: _89  and  _92
REMARK   34  A    between atoms: _92  and  _93
REMARK   35  A    between atoms: _93  and  _94
REMARK   36  A    between atoms: _94  and  _95
REMARK   37  A    between atoms: _104  and  _106
REMARK   38  A    between atoms: _106  and  _107
REMARK   39  A    between atoms: _106  and  _109
REMARK   40  A    between atoms: _109  and  _110
REMARK   41  A    between atoms: _120  and  _122
REMARK   42  A    between atoms: _122  and  _123
REMARK   43  A    between atoms: _125  and  _127
REMARK   44  A    between atoms: _127  and  _128
REMARK   45  A    between atoms: _130  and  _132
REMARK   46  A    between atoms: _132  and  _133
REMARK   47  A    between atoms: _132  and  _135
REMARK   48  A    between atoms: _135  and  _136
REMARK   49  A    between atoms: _139  and  _141
REMARK   50  A    between atoms: _141  and  _142
REMARK   51  A    between atoms: _145  and  _147
REMARK   52  A    between atoms: _147  and  _148
REMARK   53  A    between atoms: _147  and  _150
REMARK   54  A    between atoms: _152  and  _154
REMARK   55  A    between atoms: _154  and  _155
REMARK   56  A    between atoms: _154  and  _157
REMARK   57  A    between atoms: _157  and  _158
REMARK   58  A    between atoms: _163  and  _165
REMARK   59  A    between atoms: _165  and  _166
REMARK   60  A    between atoms: _165  and  _168
REMARK   61  A    between atoms: _168  and  _169
REMARK   62  A    between atoms: _169  and  _170
REMARK   63  A    between atoms: _173  and  _175
REMARK   64  A    between atoms: _175  and  _176
REMARK   65  A    between atoms: _175  and  _178
REMARK   66  A    between atoms: _178  and  _179
REMARK   67  A    between atoms: _179  and  _180
REMARK   68  A    between atoms: _183  and  _185
REMARK   69  A    between atoms: _185  and  _186
REMARK   70  A    between atoms: _189  and  _191
REMARK   71  A    between atoms: _191  and  _192
REMARK   72  A    between atoms: _191  and  _194
REMARK   73  A    between atoms: _194  and  _195
REMARK   74  A    between atoms: _205  and  _207
REMARK   75  A    between atoms: _207  and  _208
REMARK   76  A    between atoms: _207  and  _210
REMARK   77  A    between atoms: _210  and  _211
REMARK   78  A    between atoms: _214  and  _215
REMARK   79  A    between atoms: _220  and  _222
REMARK   80  A    between atoms: _222  and  _223
REMARK   81  A    between atoms: _222  and  _225
REMARK   82  A    between atoms: _225  and  _226
REMARK   83  A    between atoms: _236  and  _238
REMARK   84  A    between atoms: _238  and  _239
REMARK   85  A    between atoms: _238  and  _241
REMARK   86  A    between atoms: _241  and  _242
REMARK   87  A    between atoms: _247  and  _249
REMARK   88  A    between atoms: _249  and  _250
REMARK   89  A    between atoms: _249  and  _252
REMARK   90  A    between atoms: _252  and  _253
REMARK   91  A    between atoms: _263  and  _265
REMARK   92  A    between atoms: _265  and  _266
REMARK   93  A    between atoms: _265  and  _268
REMARK   94  A    between atoms: _268  and  _269
REMARK   95  A    between atoms: _279  and  _281
REMARK   96  A    between atoms: _281  and  _282
REMARK   97  A    between atoms: _281  and  _284
REMARK   98  A    between atoms: _284  and  _285
REMARK   99  A    between atoms: _290  and  _291
REMARK  100  A    between atoms: _293  and  _295
REMARK  101  A    between atoms: _295  and  _296
REMARK  102  A    between atoms: _295  and  _298
REMARK  103  A    between atoms: _298  and  _299
REMARK  104  A    between atoms: _301  and  _303
REMARK  105  A    between atoms: _303  and  _304
REMARK  106  A    between atoms: _303  and  _306
REMARK  107  A    between atoms: _306  and  _307
REMARK  108  A    between atoms: _307  and  _308
REMARK  109  A    between atoms: _311  and  _313
REMARK  110  A    between atoms: _313  and  _314
REMARK  111  A    between atoms: _313  and  _316
REMARK  112  A    between atoms: _316  and  _317
REMARK  113  A    between atoms: _323  and  _325
REMARK  114  A    between atoms: _325  and  _326
REMARK  115  A    between atoms: _328  and  _330
REMARK  116  A    between atoms: _330  and  _331
REMARK  117  A    between atoms: _330  and  _333
REMARK  118  A    between atoms: _333  and  _334
REMARK  119  A    between atoms: _334  and  _335
REMARK  120  A    between atoms: _340  and  _342
REMARK  121  A    between atoms: _342  and  _343
REMARK  122  A    between atoms: _342  and  _345
REMARK  123  A    between atoms: _345  and  _346
REMARK  124  A    between atoms: _346  and  _347
REMARK  125  A    between atoms: _347  and  _348
REMARK  126  A    between atoms: _348  and  _349
REMARK  127  A    between atoms: _353  and  _355
REMARK  128  A    between atoms: _355  and  _356
REMARK  129  A    between atoms: _355  and  _358
REMARK  130  A    between atoms: _358  and  _359
REMARK  131  A    between atoms: _361  and  _363
REMARK  132  A    between atoms: _363  and  _364
REMARK  133  A    between atoms: _363  and  _366
REMARK  134  A    between atoms: _366  and  _367
REMARK  135  A    between atoms: _370  and  _372
REMARK  136  A    between atoms: _372  and  _373
REMARK  137  A    between atoms: _372  and  _375
REMARK  138  A    between atoms: _375  and  _376
REMARK  139  A    between atoms: _386  and  _388
REMARK  140  A    between atoms: _388  and  _389
REMARK  141  A    between atoms: _388  and  _391
REMARK  142  A    between atoms: _391  and  _392
REMARK  143  A    between atoms: _392  and  _393
REMARK  144  A    between atoms: _398  and  _400
REMARK  145  A    between atoms: _400  and  _401
REMARK  146  A    between atoms: _400  and  _403
REMARK  147  A    between atoms: _403  and  _404
REMARK                            x       y       z     vdW  Elec       q    Type
REMARK                         _______ _______ _______ _____ _____    ______ ____
ROOT
ATOM      1  C   GLU A   2      21.639  41.864  -3.870  0.00  0.00    +0.241 C 
ATOM      2  N   PHE A   3      20.752  42.868  -3.972  0.00  0.00    -0.297 N 
ATOM      3  H   PHE A   3      20.219  43.144  -3.122  0.00  0.00    +0.150 HD
ATOM      4  O   GLU A   2      22.076  41.233  -4.816  0.00  0.00    -0.273 OA
ENDROOT
BRANCH   1   5
ATOM      5  CA  GLU A   2      22.097  41.509  -2.484  0.00  0.00    +0.149 C 
BRANCH   5   8
ATOM      6  C   SER A   1      22.089  39.524  -1.056  0.00  0.00    +0.241 C 
ATOM      7  O   SER A   1      22.179  40.201   0.005  0.00  0.00    -0.274 OA
ATOM      8  N   GLU A   2      22.146  40.063  -2.283  0.00  0.00    -0.297 N 
ATOM      9  H   GLU A   2      22.227  39.437  -3.110  0.00  0.00    +0.150 HD
BRANCH   6  10
ATOM     10  CA  SER A   1      21.912  38.001  -0.978  0.00  0.00    +0.174 C 
BRANCH  10  11
ATOM     11  N   SER A   1      21.474  37.389  -2.238  0.00  0.00    -0.236 NA
ATOM     12  H   SER A   1      22.173  37.062  -2.935  0.00  0.00    +0.142 HD
ENDBRANCH  10  11
BRANCH  10  13
ATOM     13  CB  SER A   1      23.142  37.312  -0.354  0.00  0.00    +0.163 C 
BRANCH  13  14
ATOM     14  OG  SER A   1      24.227  37.109  -1.245  0.00  0.00    -0.380 OA
ATOM     15  H   SER A   1      24.969  36.664  -0.764  0.00  0.00    +0.211 HD
ENDBRANCH  13  14
ENDBRANCH  10  13
ENDBRANCH   6  10
ENDBRANCH   5   8
BRANCH   5  16
ATOM     16  CB  GLU A   2      23.472  42.152  -2.302  0.00  0.00    +0.041 C 
BRANCH  16  17
ATOM     17  CG  GLU A   2      24.055  42.185  -0.883  0.00  0.00    +0.116 C 
BRANCH  17  18
ATOM     18  CD  GLU A   2      25.378  42.924  -0.850  0.00  0.00    +0.365 C 
ATOM     19  OE2 GLU A   2      26.166  42.827   0.128  0.00  0.00    -0.246 OA
ATOM     20  OE1 GLU A   2      25.621  43.618  -1.834  0.00  0.00    -0.246 OA
ENDBRANCH  17  18
ENDBRANCH  16  17
ENDBRANCH   5  16
ENDBRANCH   1   5
BRANCH   2  21
ATOM     21  CA  PHE A   3      20.499  43.588  -5.208  0.00  0.00    +0.153 C 
BRANCH  21  22
ATOM     22  C   PHE A   3      19.875  44.918  -4.772  0.00  0.00    +0.241 C 
ATOM     23  O   PHE A   3      19.348  45.022  -3.666  0.00  0.00    -0.273 OA
ATOM     24  N   GLY A   4      19.930  45.960  -5.587  0.00  0.00    -0.296 N 
ATOM     25  H   GLY A   4      20.255  45.876  -6.571  0.00  0.00    +0.150 HD
BRANCH  24  26
ATOM     26  CA  GLY A   4      19.512  47.212  -5.025  0.00  0.00    +0.163 C 
BRANCH  26  27
ATOM     27  C   GLY A   4      19.428  48.324  -6.028  0.00  0.00    +0.229 C 
ATOM     28  O   GLY A   4      19.897  48.185  -7.153  0.00  0.00    -0.286 OA
ENDBRANCH  26  27
ENDBRANCH  24  26
ENDBRANCH  21  22
BRANCH  21  29
ATOM     29  CB  PHE A   3      19.652  42.750  -6.238  0.00  0.00    +0.055 C 
BRANCH  29  30
ATOM     30  CG  PHE A   3      18.156  42.747  -5.989  0.00  0.00    -0.020 A 
ATOM     31  CD2 PHE A   3      17.599  42.175  -4.811  0.00  0.00    -0.004 A 
ATOM     32  CE2 PHE A   3      16.214  42.196  -4.554  0.00  0.00    -0.000 A 
ATOM     33  CZ  PHE A   3      15.370  42.723  -5.491  0.00  0.00    -0.000 A 
ATOM     34  CE1 PHE A   3      15.881  43.271  -6.679  0.00  0.00    -0.000 A 
ATOM     35  CD1 PHE A   3      17.301  43.280  -6.923  0.00  0.00    -0.004 A 
ENDBRANCH  29  30
ENDBRANCH  21  29
ENDBRANCH   2  21
TORSDOF 15
REMARK  Name = ../refined-set-2016/2vo5/2vo5_pocket.pdb
REMARK  147 active torsions:
REMARK  status: ('A' for Active; 'I' for Inactive)
REMARK    1  A    between atoms: _1  and  _3
REMARK    2  A    between atoms: _3  and  _4
REMARK    3  A    between atoms: _3  and  _6
REMARK    4  A    between atoms: _6  and  _7
REMARK    5  A    between atoms: _10  and  _12
REMARK    6  A    between atoms: _12  and  _13
REMARK    7  A    between atoms: _12  and  _15
REMARK    8  A    between atoms: _15  and  _16
REMARK    9  A    between atoms: _21  and  _23
REMARK   10  A    between atoms: _23  and  _24
REMARK   11  A    between atoms: _23  and  _26
REMARK   12  A    between atoms: _26  and  _27
REMARK   13  A    between atoms: _37  and  _39
REMARK   14  A    between atoms: _39  and  _40
REMARK   15  A    between atoms: _39  and  _42
REMARK   16  A    between atoms: _42  and  _43
REMARK   17  A    between atoms: _46  and  _48
REMARK   18  A    between atoms: _48  and  _49
REMARK   19  A    between atoms: _48  and  _51
REMARK   20  A    between atoms: _51  and  _52
REMARK   21  A    between atoms: _62  and  _64
REMARK   22  A    between atoms: _64  and  _65
REMARK   23  A    between atoms: _67  and  _69
REMARK   24  A    between atoms: _69  and  _70
REMARK   25  A    between atoms: _69  and  _72
REMARK   26  A    between atoms: _72  and  _73
REMARK   27  A    between atoms: _78  and  _80
REMARK   28  A    between atoms: _80  and  _81
REMARK   29  A    between atoms: _80  and  _83
REMARK   30  A    between atoms: _83  and  _84
REMARK   31  A    between atoms: _87  and  _89
REMARK   32  A    between atoms: _89  and  _90
REMARK   33  A    between atoms: _89  and  _92
REMARK   34  A    between atoms: _92  and  _93
REMARK   35  A    between atoms: _93  and  _94
REMARK   36  A    between atoms: _94  and  _95
REMARK   37  A    between atoms: _104  and  _106
REMARK   38  A    between atoms: _106  and  _107
REMARK   39  A    between atoms: _106  and  _109
REMARK   40  A    between atoms: _109  and  _110
REMARK   41  A    between atoms: _120  and  _122
REMARK   42  A    between atoms: _122  and  _123
REMARK   43  A    between atoms: _125  and  _127
REMARK   44  A    between atoms: _127  and  _128
REMARK   45  A    between atoms: _130  and  _132
REMARK   46  A    between atoms: _132  and  _133
REMARK   47  A    between atoms: _132  and  _135
REMARK   48  A    between atoms: _135  and  _136
REMARK   49  A    between atoms: _139  and  _141
REMARK   50  A    between atoms: _141  and  _142
REMARK   51  A    between atoms: _145  and  _147
REMARK   52  A    between atoms: _147  and  _148
REMARK   53  A    between atoms: _147  and  _150
REMARK   54  A    between atoms: _152  and  _154
REMARK   55  A    between atoms: _154  and  _155
REMARK   56  A    between atoms: _154  and  _157
REMARK   57  A    between atoms: _157  and  _158
REMARK   58  A    between atoms: _163  and  _165
REMARK   59  A    between atoms: _165  and  _166
REMARK   60  A    between atoms: _165  and  _168
REMARK   61  A    between atoms: _168  and  _169
REMARK   62  A    between atoms: _169  and  _170
REMARK   63  A    between atoms: _173  and  _175
REMARK   64  A    between atoms: _175  and  _176
REMARK   65  A    between atoms: _175  and  _178
REMARK   66  A    between atoms: _178  and  _179
REMARK   67  A    between atoms: _179  and  _180
REMARK   68  A    between atoms: _183  and  _185
REMARK   69  A    between atoms: _185  and  _186
REMARK   70  A    between atoms: _189  and  _191
REMARK   71  A    between atoms: _191  and  _192
REMARK   72  A    between atoms: _191  and  _194
REMARK   73  A    between atoms: _194  and  _195
REMARK   74  A    between atoms: _205  and  _207
REMARK   75  A    between atoms: _207  and  _208
REMARK   76  A    between atoms: _207  and  _210
REMARK   77  A    between atoms: _210  and  _211
REMARK   78  A    between atoms: _214  and  _215
REMARK   79  A    between atoms: _220  and  _222
REMARK   80  A    between atoms: _222  and  _223
REMARK   81  A    between atoms: _222  and  _225
REMARK   82  A    between atoms: _225  and  _226
REMARK   83  A    between atoms: _236  and  _238
REMARK   84  A    between atoms: _238  and  _239
REMARK   85  A    between atoms: _238  and  _241
REMARK   86  A    between atoms: _241  and  _242
REMARK   87  A    between atoms: _247  and  _249
REMARK   88  A    between atoms: _249  and  _250
REMARK   89  A    between atoms: _249  and  _252
REMARK   90  A    between atoms: _252  and  _253
REMARK   91  A    between atoms: _263  and  _265
REMARK   92  A    between atoms: _265  and  _266
REMARK   93  A    between atoms: _265  and  _268
REMARK   94  A    between atoms: _268  and  _269
REMARK   95  A    between atoms: _279  and  _281
REMARK   96  A    between atoms: _281  and  _282
REMARK   97  A    between atoms: _281  and  _284
REMARK   98  A    between atoms: _284  and  _285
REMARK   99  A    between atoms: _290  and  _291
REMARK  100  A    between atoms: _293  and  _295
REMARK  101  A    between atoms: _295  and  _296
REMARK  102  A    between atoms: _295  and  _298
REMARK  103  A    between atoms: _298  and  _299
REMARK  104  A    between atoms: _301  and  _303
REMARK  105  A    between atoms: _303  and  _304
REMARK  106  A    between atoms: _303  and  _306
REMARK  107  A    between atoms: _306  and  _307
REMARK  108  A    between atoms: _307  and  _308
REMARK  109  A    between atoms: _311  and  _313
REMARK  110  A    between atoms: _313  and  _314
REMARK  111  A    between atoms: _313  and  _316
REMARK  112  A    between atoms: _316  and  _317
REMARK  113  A    between atoms: _323  and  _325
REMARK  114  A    between atoms: _325  and  _326
REMARK  115  A    between atoms: _328  and  _330
REMARK  116  A    between atoms: _330  and  _331
REMARK  117  A    between atoms: _330  and  _333
REMARK  118  A    between atoms: _333  and  _334
REMARK  119  A    between atoms: _334  and  _335
REMARK  120  A    between atoms: _340  and  _342
REMARK  121  A    between atoms: _342  and  _343
REMARK  122  A    between atoms: _342  and  _345
REMARK  123  A    between atoms: _345  and  _346
REMARK  124  A    between atoms: _346  and  _347
REMARK  125  A    between atoms: _347  and  _348
REMARK  126  A    between atoms: _348  and  _349
REMARK  127  A    between atoms: _353  and  _355
REMARK  128  A    between atoms: _355  and  _356
REMARK  129  A    between atoms: _355  and  _358
REMARK  130  A    between atoms: _358  and  _359
REMARK  131  A    between atoms: _361  and  _363
REMARK  132  A    between atoms: _363  and  _364
REMARK  133  A    between atoms: _363  and  _366
REMARK  134  A    between atoms: _366  and  _367
REMARK  135  A    between atoms: _370  and  _372
REMARK  136  A    between atoms: _372  and  _373
REMARK  137  A    between atoms: _372  and  _375
REMARK  138  A    between atoms: _375  and  _376
REMARK  139  A    between atoms: _386  and  _388
REMARK  140  A    between atoms: _388  and  _389
REMARK  141  A    between atoms: _388  and  _391
REMARK  142  A    between atoms: _391  and  _392
REMARK  143  A    between atoms: _392  and  _393
REMARK  144  A    between atoms: _398  and  _400
REMARK  145  A    between atoms: _400  and  _401
REMARK  146  A    between atoms: _400  and  _403
REMARK  147  A    between atoms: _403  and  _404
REMARK                            x       y       z     vdW  Elec       q    Type
REMARK                         _______ _______ _______ _____ _____    ______ ____
ROOT
ATOM      1  CB  GLN A   1      20.381  54.842  -5.407  0.00  0.00    +0.035 C 
ENDROOT
BRANCH   1   2
ATOM      2  CA  GLN A   1      19.096  54.107  -4.987  0.00  0.00    +0.134 C 
BRANCH   2   3
ATOM      3  N   GLN A   1      19.018  52.912  -5.825  0.00  0.00    -0.239 NA
ATOM      4  H   GLN A   1      19.402  52.971  -6.790  0.00  0.00    +0.142 HD
ENDBRANCH   2   3
BRANCH   2   5
ATOM      5  C   GLN A   1      17.897  55.058  -5.143  0.00  0.00    +0.224 C 
ATOM      6  O   GLN A   1      17.251  55.105  -6.195  0.00  0.00    -0.287 OA
ENDBRANCH   2   5
ENDBRANCH   1   2
BRANCH   1   7
ATOM      7  CG  GLN A   1      21.117  55.480  -4.293  0.00  0.00    +0.087 C 
BRANCH   7   8
ATOM      8  CD  GLN A   1      22.400  56.125  -4.731  0.00  0.00    +0.219 C 
ATOM      9  NE2 GLN A   1      23.511  55.461  -4.441  0.00  0.00    -0.329 N 
ATOM     10 HE21 GLN A   1      23.456  54.544  -3.953  0.00  0.00    +0.145 HD
ATOM     11 HE22 GLN A   1      24.437  55.857  -4.701  0.00  0.00    +0.145 HD
ATOM     12  OE1 GLN A   1      22.406  57.224  -5.312  0.00  0.00    -0.275 OA
ENDBRANCH   7   8
ENDBRANCH   1   7
TORSDOF 5
REMARK  Name = ../refined-set-2016/2vo5/2vo5_pocket.pdb
REMARK  147 active torsions:
REMARK  status: ('A' for Active; 'I' for Inactive)
REMARK    1  A    between atoms: _1  and  _3
REMARK    2  A    between atoms: _3  and  _4
REMARK    3  A    between atoms: _3  and  _6
REMARK    4  A    between atoms: _6  and  _7
REMARK    5  A    between atoms: _10  and  _12
REMARK    6  A    between atoms: _12  and  _13
REMARK    7  A    between atoms: _12  and  _15
REMARK    8  A    between atoms: _15  and  _16
REMARK    9  A    between atoms: _21  and  _23
REMARK   10  A    between atoms: _23  and  _24
REMARK   11  A    between atoms: _23  and  _26
REMARK   12  A    between atoms: _26  and  _27
REMARK   13  A    between atoms: _37  and  _39
REMARK   14  A    between atoms: _39  and  _40
REMARK   15  A    between atoms: _39  and  _42
REMARK   16  A    between atoms: _42  and  _43
REMARK   17  A    between atoms: _46  and  _48
REMARK   18  A    between atoms: _48  and  _49
REMARK   19  A    between atoms: _48  and  _51
REMARK   20  A    between atoms: _51  and  _52
REMARK   21  A    between atoms: _62  and  _64
REMARK   22  A    between atoms: _64  and  _65
REMARK   23  A    between atoms: _67  and  _69
REMARK   24  A    between atoms: _69  and  _70
REMARK   25  A    between atoms: _69  and  _72
REMARK   26  A    between atoms: _72  and  _73
REMARK   27  A    between atoms: _78  and  _80
REMARK   28  A    between atoms: _80  and  _81
REMARK   29  A    between atoms: _80  and  _83
REMARK   30  A    between atoms: _83  and  _84
REMARK   31  A    between atoms: _87  and  _89
REMARK   32  A    between atoms: _89  and  _90
REMARK   33  A    between atoms: _89  and  _92
REMARK   34  A    between atoms: _92  and  _93
REMARK   35  A    between atoms: _93  and  _94
REMARK   36  A    between atoms: _94  and  _95
REMARK   37  A    between atoms: _104  and  _106
REMARK   38  A    between atoms: _106  and  _107
REMARK   39  A    between atoms: _106  and  _109
REMARK   40  A    between atoms: _109  and  _110
REMARK   41  A    between atoms: _120  and  _122
REMARK   42  A    between atoms: _122  and  _123
REMARK   43  A    between atoms: _125  and  _127
REMARK   44  A    between atoms: _127  and  _128
REMARK   45  A    between atoms: _130  and  _132
REMARK   46  A    between atoms: _132  and  _133
REMARK   47  A    between atoms: _132  and  _135
REMARK   48  A    between atoms: _135  and  _136
REMARK   49  A    between atoms: _139  and  _141
REMARK   50  A    between atoms: _141  and  _142
REMARK   51  A    between atoms: _145  and  _147
REMARK   52  A    between atoms: _147  and  _148
REMARK   53  A    between atoms: _147  and  _150
REMARK   54  A    between atoms: _152  and  _154
REMARK   55  A    between atoms: _154  and  _155
REMARK   56  A    between atoms: _154  and  _157
REMARK   57  A    between atoms: _157  and  _158
REMARK   58  A    between atoms: _163  and  _165
REMARK   59  A    between atoms: _165  and  _166
REMARK   60  A    between atoms: _165  and  _168
REMARK   61  A    between atoms: _168  and  _169
REMARK   62  A    between atoms: _169  and  _170
REMARK   63  A    between atoms: _173  and  _175
REMARK   64  A    between atoms: _175  and  _176
REMARK   65  A    between atoms: _175  and  _178
REMARK   66  A    between atoms: _178  and  _179
REMARK   67  A    between atoms: _179  and  _180
REMARK   68  A    between atoms: _183  and  _185
REMARK   69  A    between atoms: _185  and  _186
REMARK   70  A    between atoms: _189  and  _191
REMARK   71  A    between atoms: _191  and  _192
REMARK   72  A    between atoms: _191  and  _194
REMARK   73  A    between atoms: _194  and  _195
REMARK   74  A    between atoms: _205  and  _207
REMARK   75  A    between atoms: _207  and  _208
REMARK   76  A    between atoms: _207  and  _210
REMARK   77  A    between atoms: _210  and  _211
REMARK   78  A    between atoms: _214  and  _215
REMARK   79  A    between atoms: _220  and  _222
REMARK   80  A    between atoms: _222  and  _223
REMARK   81  A    between atoms: _222  and  _225
REMARK   82  A    between atoms: _225  and  _226
REMARK   83  A    between atoms: _236  and  _238
REMARK   84  A    between atoms: _238  and  _239
REMARK   85  A    between atoms: _238  and  _241
REMARK   86  A    between atoms: _241  and  _242
REMARK   87  A    between atoms: _247  and  _249
REMARK   88  A    between atoms: _249  and  _250
REMARK   89  A    between atoms: _249  and  _252
REMARK   90  A    between atoms: _252  and  _253
REMARK   91  A    between atoms: _263  and  _265
REMARK   92  A    between atoms: _265  and  _266
REMARK   93  A    between atoms: _265  and  _268
REMARK   94  A    between atoms: _268  and  _269
REMARK   95  A    between atoms: _279  and  _281
REMARK   96  A    between atoms: _281  and  _282
REMARK   97  A    between atoms: _281  and  _284
REMARK   98  A    between atoms: _284  and  _285
REMARK   99  A    between atoms: _290  and  _291
REMARK  100  A    between atoms: _293  and  _295
REMARK  101  A    between atoms: _295  and  _296
REMARK  102  A    between atoms: _295  and  _298
REMARK  103  A    between atoms: _298  and  _299
REMARK  104  A    between atoms: _301  and  _303
REMARK  105  A    between atoms: _303  and  _304
REMARK  106  A    between atoms: _303  and  _306
REMARK  107  A    between atoms: _306  and  _307
REMARK  108  A    between atoms: _307  and  _308
REMARK  109  A    between atoms: _311  and  _313
REMARK  110  A    between atoms: _313  and  _314
REMARK  111  A    between atoms: _313  and  _316
REMARK  112  A    between atoms: _316  and  _317
REMARK  113  A    between atoms: _323  and  _325
REMARK  114  A    between atoms: _325  and  _326
REMARK  115  A    between atoms: _328  and  _330
REMARK  116  A    between atoms: _330  and  _331
REMARK  117  A    between atoms: _330  and  _333
REMARK  118  A    between atoms: _333  and  _334
REMARK  119  A    between atoms: _334  and  _335
REMARK  120  A    between atoms: _340  and  _342
REMARK  121  A    between atoms: _342  and  _343
REMARK  122  A    between atoms: _342  and  _345
REMARK  123  A    between atoms: _345  and  _346
REMARK  124  A    between atoms: _346  and  _347
REMARK  125  A    between atoms: _347  and  _348
REMARK  126  A    between atoms: _348  and  _349
REMARK  127  A    between atoms: _353  and  _355
REMARK  128  A    between atoms: _355  and  _356
REMARK  129  A    between atoms: _355  and  _358
REMARK  130  A    between atoms: _358  and  _359
REMARK  131  A    between atoms: _361  and  _363
REMARK  132  A    between atoms: _363  and  _364
REMARK  133  A    between atoms: _363  and  _366
REMARK  134  A    between atoms: _366  and  _367
REMARK  135  A    between atoms: _370  and  _372
REMARK  136  A    between atoms: _372  and  _373
REMARK  137  A    between atoms: _372  and  _375
REMARK  138  A    between atoms: _375  and  _376
REMARK  139  A    between atoms: _386  and  _388
REMARK  140  A    between atoms: _388  and  _389
REMARK  141  A    between atoms: _388  and  _391
REMARK  142  A    between atoms: _391  and  _392
REMARK  143  A    between atoms: _392  and  _393
REMARK  144  A    between atoms: _398  and  _400
REMARK  145  A    between atoms: _400  and  _401
REMARK  146  A    between atoms: _400  and  _403
REMARK  147  A    between atoms: _403  and  _404
REMARK                            x       y       z     vdW  Elec       q    Type
REMARK                         _______ _______ _______ _____ _____    ______ ____
ROOT
ATOM      1  CA  LYS A   1      28.637  58.936  -1.997  0.00  0.00    +0.145 C 
ENDROOT
BRANCH   1   2
ATOM      2  C   LYS A   1      28.879  57.852  -3.015  0.00  0.00    +0.238 C 
ATOM      3  O   LYS A   1      29.953  57.246  -3.079  0.00  0.00    -0.274 OA
ATOM      4  N   SER A   2      27.849  57.569  -3.791  0.00  0.00    -0.296 N 
ATOM      5  H   SER A   2      26.882  57.763  -3.462  0.00  0.00    +0.150 HD
BRANCH   4   6
ATOM      6  CA  SER A   2      28.066  56.987  -5.105  0.00  0.00    +0.166 C 
BRANCH   6   7
ATOM      7  C   SER A   2      28.324  58.224  -6.008  0.00  0.00    +0.229 C 
ATOM      8  O   SER A   2      27.481  59.137  -6.106  0.00  0.00    -0.286 OA
ENDBRANCH   6   7
BRANCH   6   9
ATOM      9  CB  SER A   2      26.851  56.157  -5.555  0.00  0.00    +0.165 C 
BRANCH   9  10
ATOM     10  OG  SER A   2      27.265  54.831  -5.957  0.00  0.00    -0.380 OA
ATOM     11  H   SER A   2      26.472  54.312  -6.243  0.00  0.00    +0.211 HD
ENDBRANCH   9  10
ENDBRANCH   6   9
ENDBRANCH   4   6
ENDBRANCH   1   2
BRANCH   1  12
ATOM     12  N   LYS A   1      27.302  59.534  -2.170  0.00  0.00    -0.238 NA
ATOM     13  H   LYS A   1      26.465  58.918  -2.132  0.00  0.00    +0.142 HD
ENDBRANCH   1  12
BRANCH   1  14
ATOM     14  CB  LYS A   1      28.823  58.399  -0.564  0.00  0.00    +0.026 C 
BRANCH  14  15
ATOM     15  CG  LYS A   1      28.691  59.453   0.549  0.00  0.00    -0.000 C 
BRANCH  15  16
ATOM     16  CD  LYS A   1      29.897  60.380   0.579  0.00  0.00    -0.024 C 
BRANCH  16  17
ATOM     17  CE  LYS A   1      29.738  61.463   1.652  0.00  0.00    -0.086 C 
BRANCH  17  18
ATOM     18  NZ  LYS A   1      31.004  62.227   1.776  0.00  0.00    +0.380 N 
ATOM     19  HZ1 LYS A   1      30.894  62.961   2.504  0.00  0.00    -0.089 HD
ATOM     20  HZ2 LYS A   1      31.772  61.581   2.047  0.00  0.00    -0.089 HD
ATOM     21  HZ3 LYS A   1      31.229  62.673   0.864  0.00  0.00    -0.089 HD
ENDBRANCH  17  18
ENDBRANCH  16  17
ENDBRANCH  15  16
ENDBRANCH  14  15
ENDBRANCH   1  14
TORSDOF 11
REMARK  Name = ../refined-set-2016/2vo5/2vo5_pocket.pdb
REMARK  147 active torsions:
REMARK  status: ('A' for Active; 'I' for Inactive)
REMARK    1  A    between atoms: _1  and  _3
REMARK    2  A    between atoms: _3  and  _4
REMARK    3  A    between atoms: _3  and  _6
REMARK    4  A    between atoms: _6  and  _7
REMARK    5  A    between atoms: _10  and  _12
REMARK    6  A    between atoms: _12  and  _13
REMARK    7  A    between atoms: _12  and  _15
REMARK    8  A    between atoms: _15  and  _16
REMARK    9  A    between atoms: _21  and  _23
REMARK   10  A    between atoms: _23  and  _24
REMARK   11  A    between atoms: _23  and  _26
REMARK   12  A    between atoms: _26  and  _27
REMARK   13  A    between atoms: _37  and  _39
REMARK   14  A    between atoms: _39  and  _40
REMARK   15  A    between atoms: _39  and  _42
REMARK   16  A    between atoms: _42  and  _43
REMARK   17  A    between atoms: _46  and  _48
REMARK   18  A    between atoms: _48  and  _49
REMARK   19  A    between atoms: _48  and  _51
REMARK   20  A    between atoms: _51  and  _52
REMARK   21  A    between atoms: _62  and  _64
REMARK   22  A    between atoms: _64  and  _65
REMARK   23  A    between atoms: _67  and  _69
REMARK   24  A    between atoms: _69  and  _70
REMARK   25  A    between atoms: _69  and  _72
REMARK   26  A    between atoms: _72  and  _73
REMARK   27  A    between atoms: _78  and  _80
REMARK   28  A    between atoms: _80  and  _81
REMARK   29  A    between atoms: _80  and  _83
REMARK   30  A    between atoms: _83  and  _84
REMARK   31  A    between atoms: _87  and  _89
REMARK   32  A    between atoms: _89  and  _90
REMARK   33  A    between atoms: _89  and  _92
REMARK   34  A    between atoms: _92  and  _93
REMARK   35  A    between atoms: _93  and  _94
REMARK   36  A    between atoms: _94  and  _95
REMARK   37  A    between atoms: _104  and  _106
REMARK   38  A    between atoms: _106  and  _107
REMARK   39  A    between atoms: _106  and  _109
REMARK   40  A    between atoms: _109  and  _110
REMARK   41  A    between atoms: _120  and  _122
REMARK   42  A    between atoms: _122  and  _123
REMARK   43  A    between atoms: _125  and  _127
REMARK   44  A    between atoms: _127  and  _128
REMARK   45  A    between atoms: _130  and  _132
REMARK   46  A    between atoms: _132  and  _133
REMARK   47  A    between atoms: _132  and  _135
REMARK   48  A    between atoms: _135  and  _136
REMARK   49  A    between atoms: _139  and  _141
REMARK   50  A    between atoms: _141  and  _142
REMARK   51  A    between atoms: _145  and  _147
REMARK   52  A    between atoms: _147  and  _148
REMARK   53  A    between atoms: _147  and  _150
REMARK   54  A    between atoms: _152  and  _154
REMARK   55  A    between atoms: _154  and  _155
REMARK   56  A    between atoms: _154  and  _157
REMARK   57  A    between atoms: _157  and  _158
REMARK   58  A    between atoms: _163  and  _165
REMARK   59  A    between atoms: _165  and  _166
REMARK   60  A    between atoms: _165  and  _168
REMARK   61  A    between atoms: _168  and  _169
REMARK   62  A    between atoms: _169  and  _170
REMARK   63  A    between atoms: _173  and  _175
REMARK   64  A    between atoms: _175  and  _176
REMARK   65  A    between atoms: _175  and  _178
REMARK   66  A    between atoms: _178  and  _179
REMARK   67  A    between atoms: _179  and  _180
REMARK   68  A    between atoms: _183  and  _185
REMARK   69  A    between atoms: _185  and  _186
REMARK   70  A    between atoms: _189  and  _191
REMARK   71  A    between atoms: _191  and  _192
REMARK   72  A    between atoms: _191  and  _194
REMARK   73  A    between atoms: _194  and  _195
REMARK   74  A    between atoms: _205  and  _207
REMARK   75  A    between atoms: _207  and  _208
REMARK   76  A    between atoms: _207  and  _210
REMARK   77  A    between atoms: _210  and  _211
REMARK   78  A    between atoms: _214  and  _215
REMARK   79  A    between atoms: _220  and  _222
REMARK   80  A    between atoms: _222  and  _223
REMARK   81  A    between atoms: _222  and  _225
REMARK   82  A    between atoms: _225  and  _226
REMARK   83  A    between atoms: _236  and  _238
REMARK   84  A    between atoms: _238  and  _239
REMARK   85  A    between atoms: _238  and  _241
REMARK   86  A    between atoms: _241  and  _242
REMARK   87  A    between atoms: _247  and  _249
REMARK   88  A    between atoms: _249  and  _250
REMARK   89  A    between atoms: _249  and  _252
REMARK   90  A    between atoms: _252  and  _253
REMARK   91  A    between atoms: _263  and  _265
REMARK   92  A    between atoms: _265  and  _266
REMARK   93  A    between atoms: _265  and  _268
REMARK   94  A    between atoms: _268  and  _269
REMARK   95  A    between atoms: _279  and  _281
REMARK   96  A    between atoms: _281  and  _282
REMARK   97  A    between atoms: _281  and  _284
REMARK   98  A    between atoms: _284  and  _285
REMARK   99  A    between atoms: _290  and  _291
REMARK  100  A    between atoms: _293  and  _295
REMARK  101  A    between atoms: _295  and  _296
REMARK  102  A    between atoms: _295  and  _298
REMARK  103  A    between atoms: _298  and  _299
REMARK  104  A    between atoms: _301  and  _303
REMARK  105  A    between atoms: _303  and  _304
REMARK  106  A    between atoms: _303  and  _306
REMARK  107  A    between atoms: _306  and  _307
REMARK  108  A    between atoms: _307  and  _308
REMARK  109  A    between atoms: _311  and  _313
REMARK  110  A    between atoms: _313  and  _314
REMARK  111  A    between atoms: _313  and  _316
REMARK  112  A    between atoms: _316  and  _317
REMARK  113  A    between atoms: _323  and  _325
REMARK  114  A    between atoms: _325  and  _326
REMARK  115  A    between atoms: _328  and  _330
REMARK  116  A    between atoms: _330  and  _331
REMARK  117  A    between atoms: _330  and  _333
REMARK  118  A    between atoms: _333  and  _334
REMARK  119  A    between atoms: _334  and  _335
REMARK  120  A    between atoms: _340  and  _342
REMARK  121  A    between atoms: _342  and  _343
REMARK  122  A    between atoms: _342  and  _345
REMARK  123  A    between atoms: _345  and  _346
REMARK  124  A    between atoms: _346  and  _347
REMARK  125  A    between atoms: _347  and  _348
REMARK  126  A    between atoms: _348  and  _349
REMARK  127  A    between atoms: _353  and  _355
REMARK  128  A    between atoms: _355  and  _356
REMARK  129  A    between atoms: _355  and  _358
REMARK  130  A    between atoms: _358  and  _359
REMARK  131  A    between atoms: _361  and  _363
REMARK  132  A    between atoms: _363  and  _364
REMARK  133  A    between atoms: _363  and  _366
REMARK  134  A    between atoms: _366  and  _367
REMARK  135  A    between atoms: _370  and  _372
REMARK  136  A    between atoms: _372  and  _373
REMARK  137  A    between atoms: _372  and  _375
REMARK  138  A    between atoms: _375  and  _376
REMARK  139  A    between atoms: _386  and  _388
REMARK  140  A    between atoms: _388  and  _389
REMARK  141  A    between atoms: _388  and  _391
REMARK  142  A    between atoms: _391  and  _392
REMARK  143  A    between atoms: _392  and  _393
REMARK  144  A    between atoms: _398  and  _400
REMARK  145  A    between atoms: _400  and  _401
REMARK  146  A    between atoms: _400  and  _403
REMARK  147  A    between atoms: _403  and  _404
REMARK                            x       y       z     vdW  Elec       q    Type
REMARK                         _______ _______ _______ _____ _____    ______ ____
ROOT
ATOM      1  CA  ILE A   1      27.781  57.466 -10.170  0.00  0.00    +0.133 C 
ENDROOT
BRANCH   1   2
ATOM      2  N   ILE A   1      28.504  57.981  -8.986  0.00  0.00    -0.239 NA
ATOM      3  H   ILE A   1      28.447  57.405  -8.122  0.00  0.00    +0.142 HD
ENDBRANCH   1   2
BRANCH   1   4
ATOM      4  C   ILE A   1      26.294  57.785 -10.027  0.00  0.00    +0.224 C 
ATOM      5  O   ILE A   1      25.525  57.728 -10.980  0.00  0.00    -0.287 OA
ENDBRANCH   1   4
BRANCH   1   6
ATOM      6  CB  ILE A   1      27.985  55.873 -10.259  0.00  0.00    +0.023 C 
ATOM      7  CG2 ILE A   1      27.302  55.144  -9.098  0.00  0.00    +0.002 C 
BRANCH   6   8
ATOM      8  CG1 ILE A   1      27.504  55.263 -11.577  0.00  0.00    +0.002 C 
ATOM      9  CD1 ILE A   1      27.705  53.702 -11.618  0.00  0.00    +0.000 C 
ENDBRANCH   6   8
ENDBRANCH   1   6
TORSDOF 4
REMARK  Name = ../refined-set-2016/2vo5/2vo5_pocket.pdb
REMARK  147 active torsions:
REMARK  status: ('A' for Active; 'I' for Inactive)
REMARK    1  A    between atoms: _1  and  _3
REMARK    2  A    between atoms: _3  and  _4
REMARK    3  A    between atoms: _3  and  _6
REMARK    4  A    between atoms: _6  and  _7
REMARK    5  A    between atoms: _10  and  _12
REMARK    6  A    between atoms: _12  and  _13
REMARK    7  A    between atoms: _12  and  _15
REMARK    8  A    between atoms: _15  and  _16
REMARK    9  A    between atoms: _21  and  _23
REMARK   10  A    between atoms: _23  and  _24
REMARK   11  A    between atoms: _23  and  _26
REMARK   12  A    between atoms: _26  and  _27
REMARK   13  A    between atoms: _37  and  _39
REMARK   14  A    between atoms: _39  and  _40
REMARK   15  A    between atoms: _39  and  _42
REMARK   16  A    between atoms: _42  and  _43
REMARK   17  A    between atoms: _46  and  _48
REMARK   18  A    between atoms: _48  and  _49
REMARK   19  A    between atoms: _48  and  _51
REMARK   20  A    between atoms: _51  and  _52
REMARK   21  A    between atoms: _62  and  _64
REMARK   22  A    between atoms: _64  and  _65
REMARK   23  A    between atoms: _67  and  _69
REMARK   24  A    between atoms: _69  and  _70
REMARK   25  A    between atoms: _69  and  _72
REMARK   26  A    between atoms: _72  and  _73
REMARK   27  A    between atoms: _78  and  _80
REMARK   28  A    between atoms: _80  and  _81
REMARK   29  A    between atoms: _80  and  _83
REMARK   30  A    between atoms: _83  and  _84
REMARK   31  A    between atoms: _87  and  _89
REMARK   32  A    between atoms: _89  and  _90
REMARK   33  A    between atoms: _89  and  _92
REMARK   34  A    between atoms: _92  and  _93
REMARK   35  A    between atoms: _93  and  _94
REMARK   36  A    between atoms: _94  and  _95
REMARK   37  A    between atoms: _104  and  _106
REMARK   38  A    between atoms: _106  and  _107
REMARK   39  A    between atoms: _106  and  _109
REMARK   40  A    between atoms: _109  and  _110
REMARK   41  A    between atoms: _120  and  _122
REMARK   42  A    between atoms: _122  and  _123
REMARK   43  A    between atoms: _125  and  _127
REMARK   44  A    between atoms: _127  and  _128
REMARK   45  A    between atoms: _130  and  _132
REMARK   46  A    between atoms: _132  and  _133
REMARK   47  A    between atoms: _132  and  _135
REMARK   48  A    between atoms: _135  and  _136
REMARK   49  A    between atoms: _139  and  _141
REMARK   50  A    between atoms: _141  and  _142
REMARK   51  A    between atoms: _145  and  _147
REMARK   52  A    between atoms: _147  and  _148
REMARK   53  A    between atoms: _147  and  _150
REMARK   54  A    between atoms: _152  and  _154
REMARK   55  A    between atoms: _154  and  _155
REMARK   56  A    between atoms: _154  and  _157
REMARK   57  A    between atoms: _157  and  _158
REMARK   58  A    between atoms: _163  and  _165
REMARK   59  A    between atoms: _165  and  _166
REMARK   60  A    between atoms: _165  and  _168
REMARK   61  A    between atoms: _168  and  _169
REMARK   62  A    between atoms: _169  and  _170
REMARK   63  A    between atoms: _173  and  _175
REMARK   64  A    between atoms: _175  and  _176
REMARK   65  A    between atoms: _175  and  _178
REMARK   66  A    between atoms: _178  and  _179
REMARK   67  A    between atoms: _179  and  _180
REMARK   68  A    between atoms: _183  and  _185
REMARK   69  A    between atoms: _185  and  _186
REMARK   70  A    between atoms: _189  and  _191
REMARK   71  A    between atoms: _191  and  _192
REMARK   72  A    between atoms: _191  and  _194
REMARK   73  A    between atoms: _194  and  _195
REMARK   74  A    between atoms: _205  and  _207
REMARK   75  A    between atoms: _207  and  _208
REMARK   76  A    between atoms: _207  and  _210
REMARK   77  A    between atoms: _210  and  _211
REMARK   78  A    between atoms: _214  and  _215
REMARK   79  A    between atoms: _220  and  _222
REMARK   80  A    between atoms: _222  and  _223
REMARK   81  A    between atoms: _222  and  _225
REMARK   82  A    between atoms: _225  and  _226
REMARK   83  A    between atoms: _236  and  _238
REMARK   84  A    between atoms: _238  and  _239
REMARK   85  A    between atoms: _238  and  _241
REMARK   86  A    between atoms: _241  and  _242
REMARK   87  A    between atoms: _247  and  _249
REMARK   88  A    between atoms: _249  and  _250
REMARK   89  A    between atoms: _249  and  _252
REMARK   90  A    between atoms: _252  and  _253
REMARK   91  A    between atoms: _263  and  _265
REMARK   92  A    between atoms: _265  and  _266
REMARK   93  A    between atoms: _265  and  _268
REMARK   94  A    between atoms: _268  and  _269
REMARK   95  A    between atoms: _279  and  _281
REMARK   96  A    between atoms: _281  and  _282
REMARK   97  A    between atoms: _281  and  _284
REMARK   98  A    between atoms: _284  and  _285
REMARK   99  A    between atoms: _290  and  _291
REMARK  100  A    between atoms: _293  and  _295
REMARK  101  A    between atoms: _295  and  _296
REMARK  102  A    between atoms: _295  and  _298
REMARK  103  A    between atoms: _298  and  _299
REMARK  104  A    between atoms: _301  and  _303
REMARK  105  A    between atoms: _303  and  _304
REMARK  106  A    between atoms: _303  and  _306
REMARK  107  A    between atoms: _306  and  _307
REMARK  108  A    between atoms: _307  and  _308
REMARK  109  A    between atoms: _311  and  _313
REMARK  110  A    between atoms: _313  and  _314
REMARK  111  A    between atoms: _313  and  _316
REMARK  112  A    between atoms: _316  and  _317
REMARK  113  A    between atoms: _323  and  _325
REMARK  114  A    between atoms: _325  and  _326
REMARK  115  A    between atoms: _328  and  _330
REMARK  116  A    between atoms: _330  and  _331
REMARK  117  A    between atoms: _330  and  _333
REMARK  118  A    between atoms: _333  and  _334
REMARK  119  A    between atoms: _334  and  _335
REMARK  120  A    between atoms: _340  and  _342
REMARK  121  A    between atoms: _342  and  _343
REMARK  122  A    between atoms: _342  and  _345
REMARK  123  A    between atoms: _345  and  _346
REMARK  124  A    between atoms: _346  and  _347
REMARK  125  A    between atoms: _347  and  _348
REMARK  126  A    between atoms: _348  and  _349
REMARK  127  A    between atoms: _353  and  _355
REMARK  128  A    between atoms: _355  and  _356
REMARK  129  A    between atoms: _355  and  _358
REMARK  130  A    between atoms: _358  and  _359
REMARK  131  A    between atoms: _361  and  _363
REMARK  132  A    between atoms: _363  and  _364
REMARK  133  A    between atoms: _363  and  _366
REMARK  134  A    between atoms: _366  and  _367
REMARK  135  A    between atoms: _370  and  _372
REMARK  136  A    between atoms: _372  and  _373
REMARK  137  A    between atoms: _372  and  _375
REMARK  138  A    between atoms: _375  and  _376
REMARK  139  A    between atoms: _386  and  _388
REMARK  140  A    between atoms: _388  and  _389
REMARK  141  A    between atoms: _388  and  _391
REMARK  142  A    between atoms: _391  and  _392
REMARK  143  A    between atoms: _392  and  _393
REMARK  144  A    between atoms: _398  and  _400
REMARK  145  A    between atoms: _400  and  _401
REMARK  146  A    between atoms: _400  and  _403
REMARK  147  A    between atoms: _403  and  _404
REMARK                            x       y       z     vdW  Elec       q    Type
REMARK                         _______ _______ _______ _____ _____    ______ ____
ROOT
ATOM      1  CA  TRP A   1      20.374  46.037  -0.403  0.00  0.00    +0.149 C 
ENDROOT
BRANCH   1   2
ATOM      2  C   TRP A   1      19.644  47.406  -0.552  0.00  0.00    +0.239 C 
ATOM      3  N   GLN A   2      19.299  48.158   0.513  0.00  0.00    -0.298 N 
ATOM      4  H   GLN A   2      18.713  48.991   0.304  0.00  0.00    +0.150 HD
ATOM      5  O   TRP A   1      19.436  47.839  -1.681  0.00  0.00    -0.274 OA
BRANCH   3   6
ATOM      6  CA  GLN A   2      19.637  47.960   1.918  0.00  0.00    +0.137 C 
BRANCH   6   7
ATOM      7  C   GLN A   2      18.389  48.381   2.717  0.00  0.00    +0.227 C 
ATOM      8  O   GLN A   2      17.548  49.117   2.213  0.00  0.00    -0.286 OA
ENDBRANCH   6   7
BRANCH   6   9
ATOM      9  CB  GLN A   2      20.839  48.831   2.334  0.00  0.00    +0.037 C 
BRANCH   9  10
ATOM     10  CG  GLN A   2      20.562  50.378   2.380  0.00  0.00    +0.087 C 
BRANCH  10  11
ATOM     11  CD  GLN A   2      21.821  51.232   2.236  0.00  0.00    +0.219 C 
ATOM     12  NE2 GLN A   2      22.307  51.779   3.354  0.00  0.00    -0.329 N 
ATOM     13 HE21 GLN A   2      21.836  51.605   4.265  0.00  0.00    +0.145 HD
ATOM     14 HE22 GLN A   2      23.156  52.378   3.313  0.00  0.00    +0.145 HD
ATOM     15  OE1 GLN A   2      22.347  51.409   1.123  0.00  0.00    -0.275 OA
ENDBRANCH  10  11
ENDBRANCH   9  10
ENDBRANCH   6   9
ENDBRANCH   3   6
ENDBRANCH   1   2
BRANCH   1  16
ATOM     16  N   TRP A   1      19.519  44.979  -0.837  0.00  0.00    -0.238 NA
ATOM     17  H   TRP A   1      19.571  44.694  -1.836  0.00  0.00    +0.142 HD
ENDBRANCH   1  16
BRANCH   1  18
ATOM     18  CB  TRP A   1      21.688  46.028  -1.228  0.00  0.00    +0.054 C 
BRANCH  18  19
ATOM     19  CG  TRP A   1      22.609  47.028  -0.581  0.00  0.00    -0.002 A 
ATOM     20  CD2 TRP A   1      23.421  46.791   0.589  0.00  0.00    +0.013 A 
ATOM     21  CE3 TRP A   1      23.726  45.643   1.343  0.00  0.00    +0.001 A 
ATOM     22  CZ3 TRP A   1      24.593  45.746   2.409  0.00  0.00    +0.000 A 
ATOM     23  CH2 TRP A   1      25.172  46.967   2.734  0.00  0.00    +0.001 A 
ATOM     24  CZ2 TRP A   1      24.927  48.101   2.010  0.00  0.00    +0.017 A 
ATOM     25  CE2 TRP A   1      24.034  48.006   0.931  0.00  0.00    +0.056 A 
ATOM     26  NE1 TRP A   1      23.588  48.975   0.046  0.00  0.00    -0.352 N 
ATOM     27  HE1 TRP A   1      23.869  49.976   0.051  0.00  0.00    +0.166 HD
ATOM     28  CD1 TRP A   1      22.704  48.388  -0.848  0.00  0.00    +0.068 A 
ENDBRANCH  18  19
ENDBRANCH   1  18
TORSDOF 9
REMARK  Name = ../refined-set-2016/2vo5/2vo5_pocket.pdb
REMARK  147 active torsions:
REMARK  status: ('A' for Active; 'I' for Inactive)
REMARK    1  A    between atoms: _1  and  _3
REMARK    2  A    between atoms: _3  and  _4
REMARK    3  A    between atoms: _3  and  _6
REMARK    4  A    between atoms: _6  and  _7
REMARK    5  A    between atoms: _10  and  _12
REMARK    6  A    between atoms: _12  and  _13
REMARK    7  A    between atoms: _12  and  _15
REMARK    8  A    between atoms: _15  and  _16
REMARK    9  A    between atoms: _21  and  _23
REMARK   10  A    between atoms: _23  and  _24
REMARK   11  A    between atoms: _23  and  _26
REMARK   12  A    between atoms: _26  and  _27
REMARK   13  A    between atoms: _37  and  _39
REMARK   14  A    between atoms: _39  and  _40
REMARK   15  A    between atoms: _39  and  _42
REMARK   16  A    between atoms: _42  and  _43
REMARK   17  A    between atoms: _46  and  _48
REMARK   18  A    between atoms: _48  and  _49
REMARK   19  A    between atoms: _48  and  _51
REMARK   20  A    between atoms: _51  and  _52
REMARK   21  A    between atoms: _62  and  _64
REMARK   22  A    between atoms: _64  and  _65
REMARK   23  A    between atoms: _67  and  _69
REMARK   24  A    between atoms: _69  and  _70
REMARK   25  A    between atoms: _69  and  _72
REMARK   26  A    between atoms: _72  and  _73
REMARK   27  A    between atoms: _78  and  _80
REMARK   28  A    between atoms: _80  and  _81
REMARK   29  A    between atoms: _80  and  _83
REMARK   30  A    between atoms: _83  and  _84
REMARK   31  A    between atoms: _87  and  _89
REMARK   32  A    between atoms: _89  and  _90
REMARK   33  A    between atoms: _89  and  _92
REMARK   34  A    between atoms: _92  and  _93
REMARK   35  A    between atoms: _93  and  _94
REMARK   36  A    between atoms: _94  and  _95
REMARK   37  A    between atoms: _104  and  _106
REMARK   38  A    between atoms: _106  and  _107
REMARK   39  A    between atoms: _106  and  _109
REMARK   40  A    between atoms: _109  and  _110
REMARK   41  A    between atoms: _120  and  _122
REMARK   42  A    between atoms: _122  and  _123
REMARK   43  A    between atoms: _125  and  _127
REMARK   44  A    between atoms: _127  and  _128
REMARK   45  A    between atoms: _130  and  _132
REMARK   46  A    between atoms: _132  and  _133
REMARK   47  A    between atoms: _132  and  _135
REMARK   48  A    between atoms: _135  and  _136
REMARK   49  A    between atoms: _139  and  _141
REMARK   50  A    between atoms: _141  and  _142
REMARK   51  A    between atoms: _145  and  _147
REMARK   52  A    between atoms: _147  and  _148
REMARK   53  A    between atoms: _147  and  _150
REMARK   54  A    between atoms: _152  and  _154
REMARK   55  A    between atoms: _154  and  _155
REMARK   56  A    between atoms: _154  and  _157
REMARK   57  A    between atoms: _157  and  _158
REMARK   58  A    between atoms: _163  and  _165
REMARK   59  A    between atoms: _165  and  _166
REMARK   60  A    between atoms: _165  and  _168
REMARK   61  A    between atoms: _168  and  _169
REMARK   62  A    between atoms: _169  and  _170
REMARK   63  A    between atoms: _173  and  _175
REMARK   64  A    between atoms: _175  and  _176
REMARK   65  A    between atoms: _175  and  _178
REMARK   66  A    between atoms: _178  and  _179
REMARK   67  A    between atoms: _179  and  _180
REMARK   68  A    between atoms: _183  and  _185
REMARK   69  A    between atoms: _185  and  _186
REMARK   70  A    between atoms: _189  and  _191
REMARK   71  A    between atoms: _191  and  _192
REMARK   72  A    between atoms: _191  and  _194
REMARK   73  A    between atoms: _194  and  _195
REMARK   74  A    between atoms: _205  and  _207
REMARK   75  A    between atoms: _207  and  _208
REMARK   76  A    between atoms: _207  and  _210
REMARK   77  A    between atoms: _210  and  _211
REMARK   78  A    between atoms: _214  and  _215
REMARK   79  A    between atoms: _220  and  _222
REMARK   80  A    between atoms: _222  and  _223
REMARK   81  A    between atoms: _222  and  _225
REMARK   82  A    between atoms: _225  and  _226
REMARK   83  A    between atoms: _236  and  _238
REMARK   84  A    between atoms: _238  and  _239
REMARK   85  A    between atoms: _238  and  _241
REMARK   86  A    between atoms: _241  and  _242
REMARK   87  A    between atoms: _247  and  _249
REMARK   88  A    between atoms: _249  and  _250
REMARK   89  A    between atoms: _249  and  _252
REMARK   90  A    between atoms: _252  and  _253
REMARK   91  A    between atoms: _263  and  _265
REMARK   92  A    between atoms: _265  and  _266
REMARK   93  A    between atoms: _265  and  _268
REMARK   94  A    between atoms: _268  and  _269
REMARK   95  A    between atoms: _279  and  _281
REMARK   96  A    between atoms: _281  and  _282
REMARK   97  A    between atoms: _281  and  _284
REMARK   98  A    between atoms: _284  and  _285
REMARK   99  A    between atoms: _290  and  _291
REMARK  100  A    between atoms: _293  and  _295
REMARK  101  A    between atoms: _295  and  _296
REMARK  102  A    between atoms: _295  and  _298
REMARK  103  A    between atoms: _298  and  _299
REMARK  104  A    between atoms: _301  and  _303
REMARK  105  A    between atoms: _303  and  _304
REMARK  106  A    between atoms: _303  and  _306
REMARK  107  A    between atoms: _306  and  _307
REMARK  108  A    between atoms: _307  and  _308
REMARK  109  A    between atoms: _311  and  _313
REMARK  110  A    between atoms: _313  and  _314
REMARK  111  A    between atoms: _313  and  _316
REMARK  112  A    between atoms: _316  and  _317
REMARK  113  A    between atoms: _323  and  _325
REMARK  114  A    between atoms: _325  and  _326
REMARK  115  A    between atoms: _328  and  _330
REMARK  116  A    between atoms: _330  and  _331
REMARK  117  A    between atoms: _330  and  _333
REMARK  118  A    between atoms: _333  and  _334
REMARK  119  A    between atoms: _334  and  _335
REMARK  120  A    between atoms: _340  and  _342
REMARK  121  A    between atoms: _342  and  _343
REMARK  122  A    between atoms: _342  and  _345
REMARK  123  A    between atoms: _345  and  _346
REMARK  124  A    between atoms: _346  and  _347
REMARK  125  A    between atoms: _347  and  _348
REMARK  126  A    between atoms: _348  and  _349
REMARK  127  A    between atoms: _353  and  _355
REMARK  128  A    between atoms: _355  and  _356
REMARK  129  A    between atoms: _355  and  _358
REMARK  130  A    between atoms: _358  and  _359
REMARK  131  A    between atoms: _361  and  _363
REMARK  132  A    between atoms: _363  and  _364
REMARK  133  A    between atoms: _363  and  _366
REMARK  134  A    between atoms: _366  and  _367
REMARK  135  A    between atoms: _370  and  _372
REMARK  136  A    between atoms: _372  and  _373
REMARK  137  A    between atoms: _372  and  _375
REMARK  138  A    between atoms: _375  and  _376
REMARK  139  A    between atoms: _386  and  _388
REMARK  140  A    between atoms: _388  and  _389
REMARK  141  A    between atoms: _388  and  _391
REMARK  142  A    between atoms: _391  and  _392
REMARK  143  A    between atoms: _392  and  _393
REMARK  144  A    between atoms: _398  and  _400
REMARK  145  A    between atoms: _400  and  _401
REMARK  146  A    between atoms: _400  and  _403
REMARK  147  A    between atoms: _403  and  _404
REMARK                            x       y       z     vdW  Elec       q    Type
REMARK                         _______ _______ _______ _____ _____    ______ ____
ROOT
ATOM      1  CG  TRP A   1      21.626  51.259  -2.957  0.00  0.00    -0.002 A 
ATOM      2  CD2 TRP A   1      22.893  51.949  -2.845  0.00  0.00    +0.013 A 
ATOM      3  CE3 TRP A   1      23.553  52.631  -1.801  0.00  0.00    +0.001 A 
ATOM      4  CZ3 TRP A   1      24.826  53.187  -2.042  0.00  0.00    +0.000 A 
ATOM      5  CH2 TRP A   1      25.432  53.075  -3.305  0.00  0.00    +0.001 A 
ATOM      6  CZ2 TRP A   1      24.820  52.393  -4.336  0.00  0.00    +0.017 A 
ATOM      7  CE2 TRP A   1      23.540  51.835  -4.091  0.00  0.00    +0.056 A 
ATOM      8  NE1 TRP A   1      22.721  51.104  -4.912  0.00  0.00    -0.352 N 
ATOM      9  HE1 TRP A   1      22.928  50.844  -5.897  0.00  0.00    +0.166 HD
ATOM     10  CD1 TRP A   1      21.576  50.769  -4.217  0.00  0.00    +0.068 A 
ENDROOT
BRANCH   1  11
ATOM     11  CB  TRP A   1      20.589  51.069  -1.889  0.00  0.00    +0.053 C 
BRANCH  11  12
ATOM     12  CA  TRP A   1      19.671  52.239  -1.660  0.00  0.00    +0.137 C 
BRANCH  12  13
ATOM     13  N   TRP A   1      20.482  53.389  -1.306  0.00  0.00    -0.239 NA
ATOM     14  H   TRP A   1      21.483  53.210  -1.088  0.00  0.00    +0.142 HD
ENDBRANCH  12  13
BRANCH  12  15
ATOM     15  C   TRP A   1      18.632  51.818  -0.616  0.00  0.00    +0.224 C 
ATOM     16  O   TRP A   1      17.915  50.838  -0.835  0.00  0.00    -0.287 OA
ENDBRANCH  12  15
ENDBRANCH  11  12
ENDBRANCH   1  11
TORSDOF 4
REMARK  Name = ../refined-set-2016/2vo5/2vo5_pocket.pdb
REMARK  147 active torsions:
REMARK  status: ('A' for Active; 'I' for Inactive)
REMARK    1  A    between atoms: _1  and  _3
REMARK    2  A    between atoms: _3  and  _4
REMARK    3  A    between atoms: _3  and  _6
REMARK    4  A    between atoms: _6  and  _7
REMARK    5  A    between atoms: _10  and  _12
REMARK    6  A    between atoms: _12  and  _13
REMARK    7  A    between atoms: _12  and  _15
REMARK    8  A    between atoms: _15  and  _16
REMARK    9  A    between atoms: _21  and  _23
REMARK   10  A    between atoms: _23  and  _24
REMARK   11  A    between atoms: _23  and  _26
REMARK   12  A    between atoms: _26  and  _27
REMARK   13  A    between atoms: _37  and  _39
REMARK   14  A    between atoms: _39  and  _40
REMARK   15  A    between atoms: _39  and  _42
REMARK   16  A    between atoms: _42  and  _43
REMARK   17  A    between atoms: _46  and  _48
REMARK   18  A    between atoms: _48  and  _49
REMARK   19  A    between atoms: _48  and  _51
REMARK   20  A    between atoms: _51  and  _52
REMARK   21  A    between atoms: _62  and  _64
REMARK   22  A    between atoms: _64  and  _65
REMARK   23  A    between atoms: _67  and  _69
REMARK   24  A    between atoms: _69  and  _70
REMARK   25  A    between atoms: _69  and  _72
REMARK   26  A    between atoms: _72  and  _73
REMARK   27  A    between atoms: _78  and  _80
REMARK   28  A    between atoms: _80  and  _81
REMARK   29  A    between atoms: _80  and  _83
REMARK   30  A    between atoms: _83  and  _84
REMARK   31  A    between atoms: _87  and  _89
REMARK   32  A    between atoms: _89  and  _90
REMARK   33  A    between atoms: _89  and  _92
REMARK   34  A    between atoms: _92  and  _93
REMARK   35  A    between atoms: _93  and  _94
REMARK   36  A    between atoms: _94  and  _95
REMARK   37  A    between atoms: _104  and  _106
REMARK   38  A    between atoms: _106  and  _107
REMARK   39  A    between atoms: _106  and  _109
REMARK   40  A    between atoms: _109  and  _110
REMARK   41  A    between atoms: _120  and  _122
REMARK   42  A    between atoms: _122  and  _123
REMARK   43  A    between atoms: _125  and  _127
REMARK   44  A    between atoms: _127  and  _128
REMARK   45  A    between atoms: _130  and  _132
REMARK   46  A    between atoms: _132  and  _133
REMARK   47  A    between atoms: _132  and  _135
REMARK   48  A    between atoms: _135  and  _136
REMARK   49  A    between atoms: _139  and  _141
REMARK   50  A    between atoms: _141  and  _142
REMARK   51  A    between atoms: _145  and  _147
REMARK   52  A    between atoms: _147  and  _148
REMARK   53  A    between atoms: _147  and  _150
REMARK   54  A    between atoms: _152  and  _154
REMARK   55  A    between atoms: _154  and  _155
REMARK   56  A    between atoms: _154  and  _157
REMARK   57  A    between atoms: _157  and  _158
REMARK   58  A    between atoms: _163  and  _165
REMARK   59  A    between atoms: _165  and  _166
REMARK   60  A    between atoms: _165  and  _168
REMARK   61  A    between atoms: _168  and  _169
REMARK   62  A    between atoms: _169  and  _170
REMARK   63  A    between atoms: _173  and  _175
REMARK   64  A    between atoms: _175  and  _176
REMARK   65  A    between atoms: _175  and  _178
REMARK   66  A    between atoms: _178  and  _179
REMARK   67  A    between atoms: _179  and  _180
REMARK   68  A    between atoms: _183  and  _185
REMARK   69  A    between atoms: _185  and  _186
REMARK   70  A    between atoms: _189  and  _191
REMARK   71  A    between atoms: _191  and  _192
REMARK   72  A    between atoms: _191  and  _194
REMARK   73  A    between atoms: _194  and  _195
REMARK   74  A    between atoms: _205  and  _207
REMARK   75  A    between atoms: _207  and  _208
REMARK   76  A    between atoms: _207  and  _210
REMARK   77  A    between atoms: _210  and  _211
REMARK   78  A    between atoms: _214  and  _215
REMARK   79  A    between atoms: _220  and  _222
REMARK   80  A    between atoms: _222  and  _223
REMARK   81  A    between atoms: _222  and  _225
REMARK   82  A    between atoms: _225  and  _226
REMARK   83  A    between atoms: _236  and  _238
REMARK   84  A    between atoms: _238  and  _239
REMARK   85  A    between atoms: _238  and  _241
REMARK   86  A    between atoms: _241  and  _242
REMARK   87  A    between atoms: _247  and  _249
REMARK   88  A    between atoms: _249  and  _250
REMARK   89  A    between atoms: _249  and  _252
REMARK   90  A    between atoms: _252  and  _253
REMARK   91  A    between atoms: _263  and  _265
REMARK   92  A    between atoms: _265  and  _266
REMARK   93  A    between atoms: _265  and  _268
REMARK   94  A    between atoms: _268  and  _269
REMARK   95  A    between atoms: _279  and  _281
REMARK   96  A    between atoms: _281  and  _282
REMARK   97  A    between atoms: _281  and  _284
REMARK   98  A    between atoms: _284  and  _285
REMARK   99  A    between atoms: _290  and  _291
REMARK  100  A    between atoms: _293  and  _295
REMARK  101  A    between atoms: _295  and  _296
REMARK  102  A    between atoms: _295  and  _298
REMARK  103  A    between atoms: _298  and  _299
REMARK  104  A    between atoms: _301  and  _303
REMARK  105  A    between atoms: _303  and  _304
REMARK  106  A    between atoms: _303  and  _306
REMARK  107  A    between atoms: _306  and  _307
REMARK  108  A    between atoms: _307  and  _308
REMARK  109  A    between atoms: _311  and  _313
REMARK  110  A    between atoms: _313  and  _314
REMARK  111  A    between atoms: _313  and  _316
REMARK  112  A    between atoms: _316  and  _317
REMARK  113  A    between atoms: _323  and  _325
REMARK  114  A    between atoms: _325  and  _326
REMARK  115  A    between atoms: _328  and  _330
REMARK  116  A    between atoms: _330  and  _331
REMARK  117  A    between atoms: _330  and  _333
REMARK  118  A    between atoms: _333  and  _334
REMARK  119  A    between atoms: _334  and  _335
REMARK  120  A    between atoms: _340  and  _342
REMARK  121  A    between atoms: _342  and  _343
REMARK  122  A    between atoms: _342  and  _345
REMARK  123  A    between atoms: _345  and  _346
REMARK  124  A    between atoms: _346  and  _347
REMARK  125  A    between atoms: _347  and  _348
REMARK  126  A    between atoms: _348  and  _349
REMARK  127  A    between atoms: _353  and  _355
REMARK  128  A    between atoms: _355  and  _356
REMARK  129  A    between atoms: _355  and  _358
REMARK  130  A    between atoms: _358  and  _359
REMARK  131  A    between atoms: _361  and  _363
REMARK  132  A    between atoms: _363  and  _364
REMARK  133  A    between atoms: _363  and  _366
REMARK  134  A    between atoms: _366  and  _367
REMARK  135  A    between atoms: _370  and  _372
REMARK  136  A    between atoms: _372  and  _373
REMARK  137  A    between atoms: _372  and  _375
REMARK  138  A    between atoms: _375  and  _376
REMARK  139  A    between atoms: _386  and  _388
REMARK  140  A    between atoms: _388  and  _389
REMARK  141  A    between atoms: _388  and  _391
REMARK  142  A    between atoms: _391  and  _392
REMARK  143  A    between atoms: _392  and  _393
REMARK  144  A    between atoms: _398  and  _400
REMARK  145  A    between atoms: _400  and  _401
REMARK  146  A    between atoms: _400  and  _403
REMARK  147  A    between atoms: _403  and  _404
REMARK                            x       y       z     vdW  Elec       q    Type
REMARK                         _______ _______ _______ _____ _____    ______ ____
ROOT
ATOM      1  O   HOH     1      36.350  49.340   0.528  0.00  0.00    +0.000 OA
ENDROOT
TORSDOF 0
REMARK  Name = ../refined-set-2016/2vo5/2vo5_pocket.pdb
REMARK  147 active torsions:
REMARK  status: ('A' for Active; 'I' for Inactive)
REMARK    1  A    between atoms: _1  and  _3
REMARK    2  A    between atoms: _3  and  _4
REMARK    3  A    between atoms: _3  and  _6
REMARK    4  A    between atoms: _6  and  _7
REMARK    5  A    between atoms: _10  and  _12
REMARK    6  A    between atoms: _12  and  _13
REMARK    7  A    between atoms: _12  and  _15
REMARK    8  A    between atoms: _15  and  _16
REMARK    9  A    between atoms: _21  and  _23
REMARK   10  A    between atoms: _23  and  _24
REMARK   11  A    between atoms: _23  and  _26
REMARK   12  A    between atoms: _26  and  _27
REMARK   13  A    between atoms: _37  and  _39
REMARK   14  A    between atoms: _39  and  _40
REMARK   15  A    between atoms: _39  and  _42
REMARK   16  A    between atoms: _42  and  _43
REMARK   17  A    between atoms: _46  and  _48
REMARK   18  A    between atoms: _48  and  _49
REMARK   19  A    between atoms: _48  and  _51
REMARK   20  A    between atoms: _51  and  _52
REMARK   21  A    between atoms: _62  and  _64
REMARK   22  A    between atoms: _64  and  _65
REMARK   23  A    between atoms: _67  and  _69
REMARK   24  A    between atoms: _69  and  _70
REMARK   25  A    between atoms: _69  and  _72
REMARK   26  A    between atoms: _72  and  _73
REMARK   27  A    between atoms: _78  and  _80
REMARK   28  A    between atoms: _80  and  _81
REMARK   29  A    between atoms: _80  and  _83
REMARK   30  A    between atoms: _83  and  _84
REMARK   31  A    between atoms: _87  and  _89
REMARK   32  A    between atoms: _89  and  _90
REMARK   33  A    between atoms: _89  and  _92
REMARK   34  A    between atoms: _92  and  _93
REMARK   35  A    between atoms: _93  and  _94
REMARK   36  A    between atoms: _94  and  _95
REMARK   37  A    between atoms: _104  and  _106
REMARK   38  A    between atoms: _106  and  _107
REMARK   39  A    between atoms: _106  and  _109
REMARK   40  A    between atoms: _109  and  _110
REMARK   41  A    between atoms: _120  and  _122
REMARK   42  A    between atoms: _122  and  _123
REMARK   43  A    between atoms: _125  and  _127
REMARK   44  A    between atoms: _127  and  _128
REMARK   45  A    between atoms: _130  and  _132
REMARK   46  A    between atoms: _132  and  _133
REMARK   47  A    between atoms: _132  and  _135
REMARK   48  A    between atoms: _135  and  _136
REMARK   49  A    between atoms: _139  and  _141
REMARK   50  A    between atoms: _141  and  _142
REMARK   51  A    between atoms: _145  and  _147
REMARK   52  A    between atoms: _147  and  _148
REMARK   53  A    between atoms: _147  and  _150
REMARK   54  A    between atoms: _152  and  _154
REMARK   55  A    between atoms: _154  and  _155
REMARK   56  A    between atoms: _154  and  _157
REMARK   57  A    between atoms: _157  and  _158
REMARK   58  A    between atoms: _163  and  _165
REMARK   59  A    between atoms: _165  and  _166
REMARK   60  A    between atoms: _165  and  _168
REMARK   61  A    between atoms: _168  and  _169
REMARK   62  A    between atoms: _169  and  _170
REMARK   63  A    between atoms: _173  and  _175
REMARK   64  A    between atoms: _175  and  _176
REMARK   65  A    between atoms: _175  and  _178
REMARK   66  A    between atoms: _178  and  _179
REMARK   67  A    between atoms: _179  and  _180
REMARK   68  A    between atoms: _183  and  _185
REMARK   69  A    between atoms: _185  and  _186
REMARK   70  A    between atoms: _189  and  _191
REMARK   71  A    between atoms: _191  and  _192
REMARK   72  A    between atoms: _191  and  _194
REMARK   73  A    between atoms: _194  and  _195
REMARK   74  A    between atoms: _205  and  _207
REMARK   75  A    between atoms: _207  and  _208
REMARK   76  A    between atoms: _207  and  _210
REMARK   77  A    between atoms: _210  and  _211
REMARK   78  A    between atoms: _214  and  _215
REMARK   79  A    between atoms: _220  and  _222
REMARK   80  A    between atoms: _222  and  _223
REMARK   81  A    between atoms: _222  and  _225
REMARK   82  A    between atoms: _225  and  _226
REMARK   83  A    between atoms: _236  and  _238
REMARK   84  A    between atoms: _238  and  _239
REMARK   85  A    between atoms: _238  and  _241
REMARK   86  A    between atoms: _241  and  _242
REMARK   87  A    between atoms: _247  and  _249
REMARK   88  A    between atoms: _249  and  _250
REMARK   89  A    between atoms: _249  and  _252
REMARK   90  A    between atoms: _252  and  _253
REMARK   91  A    between atoms: _263  and  _265
REMARK   92  A    between atoms: _265  and  _266
REMARK   93  A    between atoms: _265  and  _268
REMARK   94  A    between atoms: _268  and  _269
REMARK   95  A    between atoms: _279  and  _281
REMARK   96  A    between atoms: _281  and  _282
REMARK   97  A    between atoms: _281  and  _284
REMARK   98  A    between atoms: _284  and  _285
REMARK   99  A    between atoms: _290  and  _291
REMARK  100  A    between atoms: _293  and  _295
REMARK  101  A    between atoms: _295  and  _296
REMARK  102  A    between atoms: _295  and  _298
REMARK  103  A    between atoms: _298  and  _299
REMARK  104  A    between atoms: _301  and  _303
REMARK  105  A    between atoms: _303  and  _304
REMARK  106  A    between atoms: _303  and  _306
REMARK  107  A    between atoms: _306  and  _307
REMARK  108  A    between atoms: _307  and  _308
REMARK  109  A    between atoms: _311  and  _313
REMARK  110  A    between atoms: _313  and  _314
REMARK  111  A    between atoms: _313  and  _316
REMARK  112  A    between atoms: _316  and  _317
REMARK  113  A    between atoms: _323  and  _325
REMARK  114  A    between atoms: _325  and  _326
REMARK  115  A    between atoms: _328  and  _330
REMARK  116  A    between atoms: _330  and  _331
REMARK  117  A    between atoms: _330  and  _333
REMARK  118  A    between atoms: _333  and  _334
REMARK  119  A    between atoms: _334  and  _335
REMARK  120  A    between atoms: _340  and  _342
REMARK  121  A    between atoms: _342  and  _343
REMARK  122  A    between atoms: _342  and  _345
REMARK  123  A    between atoms: _345  and  _346
REMARK  124  A    between atoms: _346  and  _347
REMARK  125  A    between atoms: _347  and  _348
REMARK  126  A    between atoms: _348  and  _349
REMARK  127  A    between atoms: _353  and  _355
REMARK  128  A    between atoms: _355  and  _356
REMARK  129  A    between atoms: _355  and  _358
REMARK  130  A    between atoms: _358  and  _359
REMARK  131  A    between atoms: _361  and  _363
REMARK  132  A    between atoms: _363  and  _364
REMARK  133  A    between atoms: _363  and  _366
REMARK  134  A    between atoms: _366  and  _367
REMARK  135  A    between atoms: _370  and  _372
REMARK  136  A    between atoms: _372  and  _373
REMARK  137  A    between atoms: _372  and  _375
REMARK  138  A    between atoms: _375  and  _376
REMARK  139  A    between atoms: _386  and  _388
REMARK  140  A    between atoms: _388  and  _389
REMARK  141  A    between atoms: _388  and  _391
REMARK  142  A    between atoms: _391  and  _392
REMARK  143  A    between atoms: _392  and  _393
REMARK  144  A    between atoms: _398  and  _400
REMARK  145  A    between atoms: _400  and  _401
REMARK  146  A    between atoms: _400  and  _403
REMARK  147  A    between atoms: _403  and  _404
REMARK                            x       y       z     vdW  Elec       q    Type
REMARK                         _______ _______ _______ _____ _____    ______ ____
ROOT
ATOM      1  O   HOH     1      33.175  54.731  -1.075  0.00  0.00    +0.000 OA
ENDROOT
TORSDOF 0
REMARK  Name = ../refined-set-2016/2vo5/2vo5_pocket.pdb
REMARK  147 active torsions:
REMARK  status: ('A' for Active; 'I' for Inactive)
REMARK    1  A    between atoms: _1  and  _3
REMARK    2  A    between atoms: _3  and  _4
REMARK    3  A    between atoms: _3  and  _6
REMARK    4  A    between atoms: _6  and  _7
REMARK    5  A    between atoms: _10  and  _12
REMARK    6  A    between atoms: _12  and  _13
REMARK    7  A    between atoms: _12  and  _15
REMARK    8  A    between atoms: _15  and  _16
REMARK    9  A    between atoms: _21  and  _23
REMARK   10  A    between atoms: _23  and  _24
REMARK   11  A    between atoms: _23  and  _26
REMARK   12  A    between atoms: _26  and  _27
REMARK   13  A    between atoms: _37  and  _39
REMARK   14  A    between atoms: _39  and  _40
REMARK   15  A    between atoms: _39  and  _42
REMARK   16  A    between atoms: _42  and  _43
REMARK   17  A    between atoms: _46  and  _48
REMARK   18  A    between atoms: _48  and  _49
REMARK   19  A    between atoms: _48  and  _51
REMARK   20  A    between atoms: _51  and  _52
REMARK   21  A    between atoms: _62  and  _64
REMARK   22  A    between atoms: _64  and  _65
REMARK   23  A    between atoms: _67  and  _69
REMARK   24  A    between atoms: _69  and  _70
REMARK   25  A    between atoms: _69  and  _72
REMARK   26  A    between atoms: _72  and  _73
REMARK   27  A    between atoms: _78  and  _80
REMARK   28  A    between atoms: _80  and  _81
REMARK   29  A    between atoms: _80  and  _83
REMARK   30  A    between atoms: _83  and  _84
REMARK   31  A    between atoms: _87  and  _89
REMARK   32  A    between atoms: _89  and  _90
REMARK   33  A    between atoms: _89  and  _92
REMARK   34  A    between atoms: _92  and  _93
REMARK   35  A    between atoms: _93  and  _94
REMARK   36  A    between atoms: _94  and  _95
REMARK   37  A    between atoms: _104  and  _106
REMARK   38  A    between atoms: _106  and  _107
REMARK   39  A    between atoms: _106  and  _109
REMARK   40  A    between atoms: _109  and  _110
REMARK   41  A    between atoms: _120  and  _122
REMARK   42  A    between atoms: _122  and  _123
REMARK   43  A    between atoms: _125  and  _127
REMARK   44  A    between atoms: _127  and  _128
REMARK   45  A    between atoms: _130  and  _132
REMARK   46  A    between atoms: _132  and  _133
REMARK   47  A    between atoms: _132  and  _135
REMARK   48  A    between atoms: _135  and  _136
REMARK   49  A    between atoms: _139  and  _141
REMARK   50  A    between atoms: _141  and  _142
REMARK   51  A    between atoms: _145  and  _147
REMARK   52  A    between atoms: _147  and  _148
REMARK   53  A    between atoms: _147  and  _150
REMARK   54  A    between atoms: _152  and  _154
REMARK   55  A    between atoms: _154  and  _155
REMARK   56  A    between atoms: _154  and  _157
REMARK   57  A    between atoms: _157  and  _158
REMARK   58  A    between atoms: _163  and  _165
REMARK   59  A    between atoms: _165  and  _166
REMARK   60  A    between atoms: _165  and  _168
REMARK   61  A    between atoms: _168  and  _169
REMARK   62  A    between atoms: _169  and  _170
REMARK   63  A    between atoms: _173  and  _175
REMARK   64  A    between atoms: _175  and  _176
REMARK   65  A    between atoms: _175  and  _178
REMARK   66  A    between atoms: _178  and  _179
REMARK   67  A    between atoms: _179  and  _180
REMARK   68  A    between atoms: _183  and  _185
REMARK   69  A    between atoms: _185  and  _186
REMARK   70  A    between atoms: _189  and  _191
REMARK   71  A    between atoms: _191  and  _192
REMARK   72  A    between atoms: _191  and  _194
REMARK   73  A    between atoms: _194  and  _195
REMARK   74  A    between atoms: _205  and  _207
REMARK   75  A    between atoms: _207  and  _208
REMARK   76  A    between atoms: _207  and  _210
REMARK   77  A    between atoms: _210  and  _211
REMARK   78  A    between atoms: _214  and  _215
REMARK   79  A    between atoms: _220  and  _222
REMARK   80  A    between atoms: _222  and  _223
REMARK   81  A    between atoms: _222  and  _225
REMARK   82  A    between atoms: _225  and  _226
REMARK   83  A    between atoms: _236  and  _238
REMARK   84  A    between atoms: _238  and  _239
REMARK   85  A    between atoms: _238  and  _241
REMARK   86  A    between atoms: _241  and  _242
REMARK   87  A    between atoms: _247  and  _249
REMARK   88  A    between atoms: _249  and  _250
REMARK   89  A    between atoms: _249  and  _252
REMARK   90  A    between atoms: _252  and  _253
REMARK   91  A    between atoms: _263  and  _265
REMARK   92  A    between atoms: _265  and  _266
REMARK   93  A    between atoms: _265  and  _268
REMARK   94  A    between atoms: _268  and  _269
REMARK   95  A    between atoms: _279  and  _281
REMARK   96  A    between atoms: _281  and  _282
REMARK   97  A    between atoms: _281  and  _284
REMARK   98  A    between atoms: _284  and  _285
REMARK   99  A    between atoms: _290  and  _291
REMARK  100  A    between atoms: _293  and  _295
REMARK  101  A    between atoms: _295  and  _296
REMARK  102  A    between atoms: _295  and  _298
REMARK  103  A    between atoms: _298  and  _299
REMARK  104  A    between atoms: _301  and  _303
REMARK  105  A    between atoms: _303  and  _304
REMARK  106  A    between atoms: _303  and  _306
REMARK  107  A    between atoms: _306  and  _307
REMARK  108  A    between atoms: _307  and  _308
REMARK  109  A    between atoms: _311  and  _313
REMARK  110  A    between atoms: _313  and  _314
REMARK  111  A    between atoms: _313  and  _316
REMARK  112  A    between atoms: _316  and  _317
REMARK  113  A    between atoms: _323  and  _325
REMARK  114  A    between atoms: _325  and  _326
REMARK  115  A    between atoms: _328  and  _330
REMARK  116  A    between atoms: _330  and  _331
REMARK  117  A    between atoms: _330  and  _333
REMARK  118  A    between atoms: _333  and  _334
REMARK  119  A    between atoms: _334  and  _335
REMARK  120  A    between atoms: _340  and  _342
REMARK  121  A    between atoms: _342  and  _343
REMARK  122  A    between atoms: _342  and  _345
REMARK  123  A    between atoms: _345  and  _346
REMARK  124  A    between atoms: _346  and  _347
REMARK  125  A    between atoms: _347  and  _348
REMARK  126  A    between atoms: _348  and  _349
REMARK  127  A    between atoms: _353  and  _355
REMARK  128  A    between atoms: _355  and  _356
REMARK  129  A    between atoms: _355  and  _358
REMARK  130  A    between atoms: _358  and  _359
REMARK  131  A    between atoms: _361  and  _363
REMARK  132  A    between atoms: _363  and  _364
REMARK  133  A    between atoms: _363  and  _366
REMARK  134  A    between atoms: _366  and  _367
REMARK  135  A    between atoms: _370  and  _372
REMARK  136  A    between atoms: _372  and  _373
REMARK  137  A    between atoms: _372  and  _375
REMARK  138  A    between atoms: _375  and  _376
REMARK  139  A    between atoms: _386  and  _388
REMARK  140  A    between atoms: _388  and  _389
REMARK  141  A    between atoms: _388  and  _391
REMARK  142  A    between atoms: _391  and  _392
REMARK  143  A    between atoms: _392  and  _393
REMARK  144  A    between atoms: _398  and  _400
REMARK  145  A    between atoms: _400  and  _401
REMARK  146  A    between atoms: _400  and  _403
REMARK  147  A    between atoms: _403  and  _404
REMARK                            x       y       z     vdW  Elec       q    Type
REMARK                         _______ _______ _______ _____ _____    ______ ____
ROOT
ATOM      1  O   HOH     1      31.771  50.208  -2.665  0.00  0.00    +0.000 OA
ENDROOT
TORSDOF 0
REMARK  Name = ../refined-set-2016/2vo5/2vo5_pocket.pdb
REMARK  147 active torsions:
REMARK  status: ('A' for Active; 'I' for Inactive)
REMARK    1  A    between atoms: _1  and  _3
REMARK    2  A    between atoms: _3  and  _4
REMARK    3  A    between atoms: _3  and  _6
REMARK    4  A    between atoms: _6  and  _7
REMARK    5  A    between atoms: _10  and  _12
REMARK    6  A    between atoms: _12  and  _13
REMARK    7  A    between atoms: _12  and  _15
REMARK    8  A    between atoms: _15  and  _16
REMARK    9  A    between atoms: _21  and  _23
REMARK   10  A    between atoms: _23  and  _24
REMARK   11  A    between atoms: _23  and  _26
REMARK   12  A    between atoms: _26  and  _27
REMARK   13  A    between atoms: _37  and  _39
REMARK   14  A    between atoms: _39  and  _40
REMARK   15  A    between atoms: _39  and  _42
REMARK   16  A    between atoms: _42  and  _43
REMARK   17  A    between atoms: _46  and  _48
REMARK   18  A    between atoms: _48  and  _49
REMARK   19  A    between atoms: _48  and  _51
REMARK   20  A    between atoms: _51  and  _52
REMARK   21  A    between atoms: _62  and  _64
REMARK   22  A    between atoms: _64  and  _65
REMARK   23  A    between atoms: _67  and  _69
REMARK   24  A    between atoms: _69  and  _70
REMARK   25  A    between atoms: _69  and  _72
REMARK   26  A    between atoms: _72  and  _73
REMARK   27  A    between atoms: _78  and  _80
REMARK   28  A    between atoms: _80  and  _81
REMARK   29  A    between atoms: _80  and  _83
REMARK   30  A    between atoms: _83  and  _84
REMARK   31  A    between atoms: _87  and  _89
REMARK   32  A    between atoms: _89  and  _90
REMARK   33  A    between atoms: _89  and  _92
REMARK   34  A    between atoms: _92  and  _93
REMARK   35  A    between atoms: _93  and  _94
REMARK   36  A    between atoms: _94  and  _95
REMARK   37  A    between atoms: _104  and  _106
REMARK   38  A    between atoms: _106  and  _107
REMARK   39  A    between atoms: _106  and  _109
REMARK   40  A    between atoms: _109  and  _110
REMARK   41  A    between atoms: _120  and  _122
REMARK   42  A    between atoms: _122  and  _123
REMARK   43  A    between atoms: _125  and  _127
REMARK   44  A    between atoms: _127  and  _128
REMARK   45  A    between atoms: _130  and  _132
REMARK   46  A    between atoms: _132  and  _133
REMARK   47  A    between atoms: _132  and  _135
REMARK   48  A    between atoms: _135  and  _136
REMARK   49  A    between atoms: _139  and  _141
REMARK   50  A    between atoms: _141  and  _142
REMARK   51  A    between atoms: _145  and  _147
REMARK   52  A    between atoms: _147  and  _148
REMARK   53  A    between atoms: _147  and  _150
REMARK   54  A    between atoms: _152  and  _154
REMARK   55  A    between atoms: _154  and  _155
REMARK   56  A    between atoms: _154  and  _157
REMARK   57  A    between atoms: _157  and  _158
REMARK   58  A    between atoms: _163  and  _165
REMARK   59  A    between atoms: _165  and  _166
REMARK   60  A    between atoms: _165  and  _168
REMARK   61  A    between atoms: _168  and  _169
REMARK   62  A    between atoms: _169  and  _170
REMARK   63  A    between atoms: _173  and  _175
REMARK   64  A    between atoms: _175  and  _176
REMARK   65  A    between atoms: _175  and  _178
REMARK   66  A    between atoms: _178  and  _179
REMARK   67  A    between atoms: _179  and  _180
REMARK   68  A    between atoms: _183  and  _185
REMARK   69  A    between atoms: _185  and  _186
REMARK   70  A    between atoms: _189  and  _191
REMARK   71  A    between atoms: _191  and  _192
REMARK   72  A    between atoms: _191  and  _194
REMARK   73  A    between atoms: _194  and  _195
REMARK   74  A    between atoms: _205  and  _207
REMARK   75  A    between atoms: _207  and  _208
REMARK   76  A    between atoms: _207  and  _210
REMARK   77  A    between atoms: _210  and  _211
REMARK   78  A    between atoms: _214  and  _215
REMARK   79  A    between atoms: _220  and  _222
REMARK   80  A    between atoms: _222  and  _223
REMARK   81  A    between atoms: _222  and  _225
REMARK   82  A    between atoms: _225  and  _226
REMARK   83  A    between atoms: _236  and  _238
REMARK   84  A    between atoms: _238  and  _239
REMARK   85  A    between atoms: _238  and  _241
REMARK   86  A    between atoms: _241  and  _242
REMARK   87  A    between atoms: _247  and  _249
REMARK   88  A    between atoms: _249  and  _250
REMARK   89  A    between atoms: _249  and  _252
REMARK   90  A    between atoms: _252  and  _253
REMARK   91  A    between atoms: _263  and  _265
REMARK   92  A    between atoms: _265  and  _266
REMARK   93  A    between atoms: _265  and  _268
REMARK   94  A    between atoms: _268  and  _269
REMARK   95  A    between atoms: _279  and  _281
REMARK   96  A    between atoms: _281  and  _282
REMARK   97  A    between atoms: _281  and  _284
REMARK   98  A    between atoms: _284  and  _285
REMARK   99  A    between atoms: _290  and  _291
REMARK  100  A    between atoms: _293  and  _295
REMARK  101  A    between atoms: _295  and  _296
REMARK  102  A    between atoms: _295  and  _298
REMARK  103  A    between atoms: _298  and  _299
REMARK  104  A    between atoms: _301  and  _303
REMARK  105  A    between atoms: _303  and  _304
REMARK  106  A    between atoms: _303  and  _306
REMARK  107  A    between atoms: _306  and  _307
REMARK  108  A    between atoms: _307  and  _308
REMARK  109  A    between atoms: _311  and  _313
REMARK  110  A    between atoms: _313  and  _314
REMARK  111  A    between atoms: _313  and  _316
REMARK  112  A    between atoms: _316  and  _317
REMARK  113  A    between atoms: _323  and  _325
REMARK  114  A    between atoms: _325  and  _326
REMARK  115  A    between atoms: _328  and  _330
REMARK  116  A    between atoms: _330  and  _331
REMARK  117  A    between atoms: _330  and  _333
REMARK  118  A    between atoms: _333  and  _334
REMARK  119  A    between atoms: _334  and  _335
REMARK  120  A    between atoms: _340  and  _342
REMARK  121  A    between atoms: _342  and  _343
REMARK  122  A    between atoms: _342  and  _345
REMARK  123  A    between atoms: _345  and  _346
REMARK  124  A    between atoms: _346  and  _347
REMARK  125  A    between atoms: _347  and  _348
REMARK  126  A    between atoms: _348  and  _349
REMARK  127  A    between atoms: _353  and  _355
REMARK  128  A    between atoms: _355  and  _356
REMARK  129  A    between atoms: _355  and  _358
REMARK  130  A    between atoms: _358  and  _359
REMARK  131  A    between atoms: _361  and  _363
REMARK  132  A    between atoms: _363  and  _364
REMARK  133  A    between atoms: _363  and  _366
REMARK  134  A    between atoms: _366  and  _367
REMARK  135  A    between atoms: _370  and  _372
REMARK  136  A    between atoms: _372  and  _373
REMARK  137  A    between atoms: _372  and  _375
REMARK  138  A    between atoms: _375  and  _376
REMARK  139  A    between atoms: _386  and  _388
REMARK  140  A    between atoms: _388  and  _389
REMARK  141  A    between atoms: _388  and  _391
REMARK  142  A    between atoms: _391  and  _392
REMARK  143  A    between atoms: _392  and  _393
REMARK  144  A    between atoms: _398  and  _400
REMARK  145  A    between atoms: _400  and  _401
REMARK  146  A    between atoms: _400  and  _403
REMARK  147  A    between atoms: _403  and  _404
REMARK                            x       y       z     vdW  Elec       q    Type
REMARK                         _______ _______ _______ _____ _____    ______ ____
ROOT
ATOM      1  O   HOH     1      29.122  42.149  -5.563  0.00  0.00    +0.000 OA
ENDROOT
TORSDOF 0
REMARK  Name = ../refined-set-2016/2vo5/2vo5_pocket.pdb
REMARK  147 active torsions:
REMARK  status: ('A' for Active; 'I' for Inactive)
REMARK    1  A    between atoms: _1  and  _3
REMARK    2  A    between atoms: _3  and  _4
REMARK    3  A    between atoms: _3  and  _6
REMARK    4  A    between atoms: _6  and  _7
REMARK    5  A    between atoms: _10  and  _12
REMARK    6  A    between atoms: _12  and  _13
REMARK    7  A    between atoms: _12  and  _15
REMARK    8  A    between atoms: _15  and  _16
REMARK    9  A    between atoms: _21  and  _23
REMARK   10  A    between atoms: _23  and  _24
REMARK   11  A    between atoms: _23  and  _26
REMARK   12  A    between atoms: _26  and  _27
REMARK   13  A    between atoms: _37  and  _39
REMARK   14  A    between atoms: _39  and  _40
REMARK   15  A    between atoms: _39  and  _42
REMARK   16  A    between atoms: _42  and  _43
REMARK   17  A    between atoms: _46  and  _48
REMARK   18  A    between atoms: _48  and  _49
REMARK   19  A    between atoms: _48  and  _51
REMARK   20  A    between atoms: _51  and  _52
REMARK   21  A    between atoms: _62  and  _64
REMARK   22  A    between atoms: _64  and  _65
REMARK   23  A    between atoms: _67  and  _69
REMARK   24  A    between atoms: _69  and  _70
REMARK   25  A    between atoms: _69  and  _72
REMARK   26  A    between atoms: _72  and  _73
REMARK   27  A    between atoms: _78  and  _80
REMARK   28  A    between atoms: _80  and  _81
REMARK   29  A    between atoms: _80  and  _83
REMARK   30  A    between atoms: _83  and  _84
REMARK   31  A    between atoms: _87  and  _89
REMARK   32  A    between atoms: _89  and  _90
REMARK   33  A    between atoms: _89  and  _92
REMARK   34  A    between atoms: _92  and  _93
REMARK   35  A    between atoms: _93  and  _94
REMARK   36  A    between atoms: _94  and  _95
REMARK   37  A    between atoms: _104  and  _106
REMARK   38  A    between atoms: _106  and  _107
REMARK   39  A    between atoms: _106  and  _109
REMARK   40  A    between atoms: _109  and  _110
REMARK   41  A    between atoms: _120  and  _122
REMARK   42  A    between atoms: _122  and  _123
REMARK   43  A    between atoms: _125  and  _127
REMARK   44  A    between atoms: _127  and  _128
REMARK   45  A    between atoms: _130  and  _132
REMARK   46  A    between atoms: _132  and  _133
REMARK   47  A    between atoms: _132  and  _135
REMARK   48  A    between atoms: _135  and  _136
REMARK   49  A    between atoms: _139  and  _141
REMARK   50  A    between atoms: _141  and  _142
REMARK   51  A    between atoms: _145  and  _147
REMARK   52  A    between atoms: _147  and  _148
REMARK   53  A    between atoms: _147  and  _150
REMARK   54  A    between atoms: _152  and  _154
REMARK   55  A    between atoms: _154  and  _155
REMARK   56  A    between atoms: _154  and  _157
REMARK   57  A    between atoms: _157  and  _158
REMARK   58  A    between atoms: _163  and  _165
REMARK   59  A    between atoms: _165  and  _166
REMARK   60  A    between atoms: _165  and  _168
REMARK   61  A    between atoms: _168  and  _169
REMARK   62  A    between atoms: _169  and  _170
REMARK   63  A    between atoms: _173  and  _175
REMARK   64  A    between atoms: _175  and  _176
REMARK   65  A    between atoms: _175  and  _178
REMARK   66  A    between atoms: _178  and  _179
REMARK   67  A    between atoms: _179  and  _180
REMARK   68  A    between atoms: _183  and  _185
REMARK   69  A    between atoms: _185  and  _186
REMARK   70  A    between atoms: _189  and  _191
REMARK   71  A    between atoms: _191  and  _192
REMARK   72  A    between atoms: _191  and  _194
REMARK   73  A    between atoms: _194  and  _195
REMARK   74  A    between atoms: _205  and  _207
REMARK   75  A    between atoms: _207  and  _208
REMARK   76  A    between atoms: _207  and  _210
REMARK   77  A    between atoms: _210  and  _211
REMARK   78  A    between atoms: _214  and  _215
REMARK   79  A    between atoms: _220  and  _222
REMARK   80  A    between atoms: _222  and  _223
REMARK   81  A    between atoms: _222  and  _225
REMARK   82  A    between atoms: _225  and  _226
REMARK   83  A    between atoms: _236  and  _238
REMARK   84  A    between atoms: _238  and  _239
REMARK   85  A    between atoms: _238  and  _241
REMARK   86  A    between atoms: _241  and  _242
REMARK   87  A    between atoms: _247  and  _249
REMARK   88  A    between atoms: _249  and  _250
REMARK   89  A    between atoms: _249  and  _252
REMARK   90  A    between atoms: _252  and  _253
REMARK   91  A    between atoms: _263  and  _265
REMARK   92  A    between atoms: _265  and  _266
REMARK   93  A    between atoms: _265  and  _268
REMARK   94  A    between atoms: _268  and  _269
REMARK   95  A    between atoms: _279  and  _281
REMARK   96  A    between atoms: _281  and  _282
REMARK   97  A    between atoms: _281  and  _284
REMARK   98  A    between atoms: _284  and  _285
REMARK   99  A    between atoms: _290  and  _291
REMARK  100  A    between atoms: _293  and  _295
REMARK  101  A    between atoms: _295  and  _296
REMARK  102  A    between atoms: _295  and  _298
REMARK  103  A    between atoms: _298  and  _299
REMARK  104  A    between atoms: _301  and  _303
REMARK  105  A    between atoms: _303  and  _304
REMARK  106  A    between atoms: _303  and  _306
REMARK  107  A    between atoms: _306  and  _307
REMARK  108  A    between atoms: _307  and  _308
REMARK  109  A    between atoms: _311  and  _313
REMARK  110  A    between atoms: _313  and  _314
REMARK  111  A    between atoms: _313  and  _316
REMARK  112  A    between atoms: _316  and  _317
REMARK  113  A    between atoms: _323  and  _325
REMARK  114  A    between atoms: _325  and  _326
REMARK  115  A    between atoms: _328  and  _330
REMARK  116  A    between atoms: _330  and  _331
REMARK  117  A    between atoms: _330  and  _333
REMARK  118  A    between atoms: _333  and  _334
REMARK  119  A    between atoms: _334  and  _335
REMARK  120  A    between atoms: _340  and  _342
REMARK  121  A    between atoms: _342  and  _343
REMARK  122  A    between atoms: _342  and  _345
REMARK  123  A    between atoms: _345  and  _346
REMARK  124  A    between atoms: _346  and  _347
REMARK  125  A    between atoms: _347  and  _348
REMARK  126  A    between atoms: _348  and  _349
REMARK  127  A    between atoms: _353  and  _355
REMARK  128  A    between atoms: _355  and  _356
REMARK  129  A    between atoms: _355  and  _358
REMARK  130  A    between atoms: _358  and  _359
REMARK  131  A    between atoms: _361  and  _363
REMARK  132  A    between atoms: _363  and  _364
REMARK  133  A    between atoms: _363  and  _366
REMARK  134  A    between atoms: _366  and  _367
REMARK  135  A    between atoms: _370  and  _372
REMARK  136  A    between atoms: _372  and  _373
REMARK  137  A    between atoms: _372  and  _375
REMARK  138  A    between atoms: _375  and  _376
REMARK  139  A    between atoms: _386  and  _388
REMARK  140  A    between atoms: _388  and  _389
REMARK  141  A    between atoms: _388  and  _391
REMARK  142  A    between atoms: _391  and  _392
REMARK  143  A    between atoms: _392  and  _393
REMARK  144  A    between atoms: _398  and  _400
REMARK  145  A    between atoms: _400  and  _401
REMARK  146  A    between atoms: _400  and  _403
REMARK  147  A    between atoms: _403  and  _404
REMARK                            x       y       z     vdW  Elec       q    Type
REMARK                         _______ _______ _______ _____ _____    ______ ____
ROOT
ATOM      1  O   HOH     1      28.673  39.940  -7.982  0.00  0.00    +0.000 OA
ENDROOT
TORSDOF 0
REMARK  Name = ../refined-set-2016/2vo5/2vo5_pocket.pdb
REMARK  147 active torsions:
REMARK  status: ('A' for Active; 'I' for Inactive)
REMARK    1  A    between atoms: _1  and  _3
REMARK    2  A    between atoms: _3  and  _4
REMARK    3  A    between atoms: _3  and  _6
REMARK    4  A    between atoms: _6  and  _7
REMARK    5  A    between atoms: _10  and  _12
REMARK    6  A    between atoms: _12  and  _13
REMARK    7  A    between atoms: _12  and  _15
REMARK    8  A    between atoms: _15  and  _16
REMARK    9  A    between atoms: _21  and  _23
REMARK   10  A    between atoms: _23  and  _24
REMARK   11  A    between atoms: _23  and  _26
REMARK   12  A    between atoms: _26  and  _27
REMARK   13  A    between atoms: _37  and  _39
REMARK   14  A    between atoms: _39  and  _40
REMARK   15  A    between atoms: _39  and  _42
REMARK   16  A    between atoms: _42  and  _43
REMARK   17  A    between atoms: _46  and  _48
REMARK   18  A    between atoms: _48  and  _49
REMARK   19  A    between atoms: _48  and  _51
REMARK   20  A    between atoms: _51  and  _52
REMARK   21  A    between atoms: _62  and  _64
REMARK   22  A    between atoms: _64  and  _65
REMARK   23  A    between atoms: _67  and  _69
REMARK   24  A    between atoms: _69  and  _70
REMARK   25  A    between atoms: _69  and  _72
REMARK   26  A    between atoms: _72  and  _73
REMARK   27  A    between atoms: _78  and  _80
REMARK   28  A    between atoms: _80  and  _81
REMARK   29  A    between atoms: _80  and  _83
REMARK   30  A    between atoms: _83  and  _84
REMARK   31  A    between atoms: _87  and  _89
REMARK   32  A    between atoms: _89  and  _90
REMARK   33  A    between atoms: _89  and  _92
REMARK   34  A    between atoms: _92  and  _93
REMARK   35  A    between atoms: _93  and  _94
REMARK   36  A    between atoms: _94  and  _95
REMARK   37  A    between atoms: _104  and  _106
REMARK   38  A    between atoms: _106  and  _107
REMARK   39  A    between atoms: _106  and  _109
REMARK   40  A    between atoms: _109  and  _110
REMARK   41  A    between atoms: _120  and  _122
REMARK   42  A    between atoms: _122  and  _123
REMARK   43  A    between atoms: _125  and  _127
REMARK   44  A    between atoms: _127  and  _128
REMARK   45  A    between atoms: _130  and  _132
REMARK   46  A    between atoms: _132  and  _133
REMARK   47  A    between atoms: _132  and  _135
REMARK   48  A    between atoms: _135  and  _136
REMARK   49  A    between atoms: _139  and  _141
REMARK   50  A    between atoms: _141  and  _142
REMARK   51  A    between atoms: _145  and  _147
REMARK   52  A    between atoms: _147  and  _148
REMARK   53  A    between atoms: _147  and  _150
REMARK   54  A    between atoms: _152  and  _154
REMARK   55  A    between atoms: _154  and  _155
REMARK   56  A    between atoms: _154  and  _157
REMARK   57  A    between atoms: _157  and  _158
REMARK   58  A    between atoms: _163  and  _165
REMARK   59  A    between atoms: _165  and  _166
REMARK   60  A    between atoms: _165  and  _168
REMARK   61  A    between atoms: _168  and  _169
REMARK   62  A    between atoms: _169  and  _170
REMARK   63  A    between atoms: _173  and  _175
REMARK   64  A    between atoms: _175  and  _176
REMARK   65  A    between atoms: _175  and  _178
REMARK   66  A    between atoms: _178  and  _179
REMARK   67  A    between atoms: _179  and  _180
REMARK   68  A    between atoms: _183  and  _185
REMARK   69  A    between atoms: _185  and  _186
REMARK   70  A    between atoms: _189  and  _191
REMARK   71  A    between atoms: _191  and  _192
REMARK   72  A    between atoms: _191  and  _194
REMARK   73  A    between atoms: _194  and  _195
REMARK   74  A    between atoms: _205  and  _207
REMARK   75  A    between atoms: _207  and  _208
REMARK   76  A    between atoms: _207  and  _210
REMARK   77  A    between atoms: _210  and  _211
REMARK   78  A    between atoms: _214  and  _215
REMARK   79  A    between atoms: _220  and  _222
REMARK   80  A    between atoms: _222  and  _223
REMARK   81  A    between atoms: _222  and  _225
REMARK   82  A    between atoms: _225  and  _226
REMARK   83  A    between atoms: _236  and  _238
REMARK   84  A    between atoms: _238  and  _239
REMARK   85  A    between atoms: _238  and  _241
REMARK   86  A    between atoms: _241  and  _242
REMARK   87  A    between atoms: _247  and  _249
REMARK   88  A    between atoms: _249  and  _250
REMARK   89  A    between atoms: _249  and  _252
REMARK   90  A    between atoms: _252  and  _253
REMARK   91  A    between atoms: _263  and  _265
REMARK   92  A    between atoms: _265  and  _266
REMARK   93  A    between atoms: _265  and  _268
REMARK   94  A    between atoms: _268  and  _269
REMARK   95  A    between atoms: _279  and  _281
REMARK   96  A    between atoms: _281  and  _282
REMARK   97  A    between atoms: _281  and  _284
REMARK   98  A    between atoms: _284  and  _285
REMARK   99  A    between atoms: _290  and  _291
REMARK  100  A    between atoms: _293  and  _295
REMARK  101  A    between atoms: _295  and  _296
REMARK  102  A    between atoms: _295  and  _298
REMARK  103  A    between atoms: _298  and  _299
REMARK  104  A    between atoms: _301  and  _303
REMARK  105  A    between atoms: _303  and  _304
REMARK  106  A    between atoms: _303  and  _306
REMARK  107  A    between atoms: _306  and  _307
REMARK  108  A    between atoms: _307  and  _308
REMARK  109  A    between atoms: _311  and  _313
REMARK  110  A    between atoms: _313  and  _314
REMARK  111  A    between atoms: _313  and  _316
REMARK  112  A    between atoms: _316  and  _317
REMARK  113  A    between atoms: _323  and  _325
REMARK  114  A    between atoms: _325  and  _326
REMARK  115  A    between atoms: _328  and  _330
REMARK  116  A    between atoms: _330  and  _331
REMARK  117  A    between atoms: _330  and  _333
REMARK  118  A    between atoms: _333  and  _334
REMARK  119  A    between atoms: _334  and  _335
REMARK  120  A    between atoms: _340  and  _342
REMARK  121  A    between atoms: _342  and  _343
REMARK  122  A    between atoms: _342  and  _345
REMARK  123  A    between atoms: _345  and  _346
REMARK  124  A    between atoms: _346  and  _347
REMARK  125  A    between atoms: _347  and  _348
REMARK  126  A    between atoms: _348  and  _349
REMARK  127  A    between atoms: _353  and  _355
REMARK  128  A    between atoms: _355  and  _356
REMARK  129  A    between atoms: _355  and  _358
REMARK  130  A    between atoms: _358  and  _359
REMARK  131  A    between atoms: _361  and  _363
REMARK  132  A    between atoms: _363  and  _364
REMARK  133  A    between atoms: _363  and  _366
REMARK  134  A    between atoms: _366  and  _367
REMARK  135  A    between atoms: _370  and  _372
REMARK  136  A    between atoms: _372  and  _373
REMARK  137  A    between atoms: _372  and  _375
REMARK  138  A    between atoms: _375  and  _376
REMARK  139  A    between atoms: _386  and  _388
REMARK  140  A    between atoms: _388  and  _389
REMARK  141  A    between atoms: _388  and  _391
REMARK  142  A    between atoms: _391  and  _392
REMARK  143  A    between atoms: _392  and  _393
REMARK  144  A    between atoms: _398  and  _400
REMARK  145  A    between atoms: _400  and  _401
REMARK  146  A    between atoms: _400  and  _403
REMARK  147  A    between atoms: _403  and  _404
REMARK                            x       y       z     vdW  Elec       q    Type
REMARK                         _______ _______ _______ _____ _____    ______ ____
ROOT
ATOM      1  O   HOH     1      31.831  42.448  -8.741  0.00  0.00    +0.000 OA
ENDROOT
TORSDOF 0
