REMARK  Name = ../refined-set-2016/3pcg/3pcg_pocket.pdb
REMARK  142 active torsions:
REMARK  status: ('A' for Active; 'I' for Inactive)
REMARK    1  A    between atoms: _1  and  _3
REMARK    2  A    between atoms: _3  and  _4
REMARK    3  A    between atoms: _3  and  _6
REMARK    4  A    between atoms: _6  and  _7
REMARK    5  A    between atoms: _7  and  _8
REMARK    6  A    between atoms: _13  and  _15
REMARK    7  A    between atoms: _15  and  _16
REMARK    8  A    between atoms: _15  and  _18
REMARK    9  A    between atoms: _18  and  _19
REMARK   10  A    between atoms: _22  and  _24
REMARK   11  A    between atoms: _24  and  _25
REMARK   12  A    between atoms: _28  and  _30
REMARK   13  A    between atoms: _30  and  _31
REMARK   14  A    between atoms: _34  and  _35
REMARK   15  A    between atoms: _40  and  _42
REMARK   16  A    between atoms: _42  and  _43
REMARK   17  A    between atoms: _42  and  _45
REMARK   18  A    between atoms: _45  and  _46
REMARK   19  A    between atoms: _51  and  _52
REMARK   20  A    between atoms: _54  and  _56
REMARK   21  A    between atoms: _56  and  _57
REMARK   22  A    between atoms: _56  and  _59
REMARK   23  A    between atoms: _62  and  _64
REMARK   24  A    between atoms: _64  and  _65
REMARK   25  A    between atoms: _64  and  _67
REMARK   26  A    between atoms: _67  and  _68
REMARK   27  A    between atoms: _71  and  _73
REMARK   28  A    between atoms: _73  and  _74
REMARK   29  A    between atoms: _77  and  _79
REMARK   30  A    between atoms: _79  and  _80
REMARK   31  A    between atoms: _79  and  _82
REMARK   32  A    between atoms: _82  and  _83
REMARK   33  A    between atoms: _83  and  _84
REMARK   34  A    between atoms: _84  and  _85
REMARK   35  A    between atoms: _94  and  _96
REMARK   36  A    between atoms: _96  and  _97
REMARK   37  A    between atoms: _99  and  _101
REMARK   38  A    between atoms: _101  and  _102
REMARK   39  A    between atoms: _101  and  _104
REMARK   40  A    between atoms: _104  and  _105
REMARK   41  A    between atoms: _108  and  _110
REMARK   42  A    between atoms: _110  and  _111
REMARK   43  A    between atoms: _110  and  _113
REMARK   44  A    between atoms: _113  and  _114
REMARK   45  A    between atoms: _119  and  _121
REMARK   46  A    between atoms: _121  and  _122
REMARK   47  A    between atoms: _121  and  _124
REMARK   48  A    between atoms: _124  and  _125
REMARK   49  A    between atoms: _130  and  _131
REMARK   50  A    between atoms: _133  and  _135
REMARK   51  A    between atoms: _135  and  _136
REMARK   52  A    between atoms: _135  and  _138
REMARK   53  A    between atoms: _138  and  _139
REMARK   54  A    between atoms: _139  and  _140
REMARK   55  A    between atoms: _140  and  _141
REMARK   56  A    between atoms: _141  and  _142
REMARK   57  A    between atoms: _146  and  _148
REMARK   58  A    between atoms: _148  and  _149
REMARK   59  A    between atoms: _148  and  _151
REMARK   60  A    between atoms: _151  and  _152
REMARK   61  A    between atoms: _155  and  _157
REMARK   62  A    between atoms: _157  and  _158
REMARK   63  A    between atoms: _157  and  _160
REMARK   64  A    between atoms: _160  and  _161
REMARK   65  A    between atoms: _163  and  _165
REMARK   66  A    between atoms: _165  and  _166
REMARK   67  A    between atoms: _165  and  _168
REMARK   68  A    between atoms: _168  and  _169
REMARK   69  A    between atoms: _169  and  _170
REMARK   70  A    between atoms: _170  and  _171
REMARK   71  A    between atoms: _180  and  _182
REMARK   72  A    between atoms: _182  and  _183
REMARK   73  A    between atoms: _182  and  _185
REMARK   74  A    between atoms: _185  and  _186
REMARK   75  A    between atoms: _196  and  _198
REMARK   76  A    between atoms: _198  and  _199
REMARK   77  A    between atoms: _198  and  _201
REMARK   78  A    between atoms: _201  and  _202
REMARK   79  A    between atoms: _202  and  _203
REMARK   80  A    between atoms: _208  and  _210
REMARK   81  A    between atoms: _210  and  _211
REMARK   82  A    between atoms: _214  and  _216
REMARK   83  A    between atoms: _216  and  _217
REMARK   84  A    between atoms: _216  and  _219
REMARK   85  A    between atoms: _219  and  _220
REMARK   86  A    between atoms: _228  and  _230
REMARK   87  A    between atoms: _230  and  _231
REMARK   88  A    between atoms: _230  and  _233
REMARK   89  A    between atoms: _233  and  _234
REMARK   90  A    between atoms: _237  and  _239
REMARK   91  A    between atoms: _239  and  _240
REMARK   92  A    between atoms: _239  and  _242
REMARK   93  A    between atoms: _242  and  _243
REMARK   94  A    between atoms: _248  and  _249
REMARK   95  A    between atoms: _252  and  _253
REMARK   96  A    between atoms: _258  and  _260
REMARK   97  A    between atoms: _260  and  _261
REMARK   98  A    between atoms: _260  and  _263
REMARK   99  A    between atoms: _263  and  _264
REMARK  100  A    between atoms: _274  and  _276
REMARK  101  A    between atoms: _276  and  _277
REMARK  102  A    between atoms: _276  and  _279
REMARK  103  A    between atoms: _279  and  _280
REMARK  104  A    between atoms: _280  and  _281
REMARK  105  A    between atoms: _281  and  _282
REMARK  106  A    between atoms: _291  and  _293
REMARK  107  A    between atoms: _293  and  _294
REMARK  108  A    between atoms: _293  and  _296
REMARK  109  A    between atoms: _296  and  _297
REMARK  110  A    between atoms: _302  and  _304
REMARK  111  A    between atoms: _304  and  _305
REMARK  112  A    between atoms: _304  and  _307
REMARK  113  A    between atoms: _307  and  _308
REMARK  114  A    between atoms: _308  and  _309
REMARK  115  A    between atoms: _309  and  _310
REMARK  116  A    between atoms: _320  and  _321
REMARK  117  A    between atoms: _326  and  _328
REMARK  118  A    between atoms: _339  and  _342
REMARK  119  A    between atoms: _342  and  _343
REMARK  120  A    between atoms: _348  and  _349
REMARK  121  A    between atoms: _357  and  _359
REMARK  122  A    between atoms: _359  and  _360
REMARK  123  A    between atoms: _359  and  _362
REMARK  124  A    between atoms: _362  and  _363
REMARK  125  A    between atoms: _363  and  _364
REMARK  126  A    between atoms: _369  and  _371
REMARK  127  A    between atoms: _371  and  _372
REMARK  128  A    between atoms: _371  and  _374
REMARK  129  A    between atoms: _374  and  _375
REMARK  130  A    between atoms: _380  and  _381
REMARK  131  A    between atoms: _383  and  _385
REMARK  132  A    between atoms: _385  and  _386
REMARK  133  A    between atoms: _385  and  _388
REMARK  134  A    between atoms: _390  and  _392
REMARK  135  A    between atoms: _392  and  _393
REMARK  136  A    between atoms: _392  and  _395
REMARK  137  A    between atoms: _395  and  _396
REMARK  138  A    between atoms: _399  and  _401
REMARK  139  A    between atoms: _401  and  _402
REMARK  140  A    between atoms: _401  and  _404
REMARK  141  A    between atoms: _404  and  _405
REMARK  142  A    between atoms: _405  and  _406
REMARK                            x       y       z     vdW  Elec       q    Type
REMARK                         _______ _______ _______ _____ _____    ______ ____
ROOT
ATOM      1  C   GLY A   4      18.990  10.232  43.117  0.00  0.00    +0.246 C 
ATOM      2  N   PRO A   5      18.175  11.037  43.749  0.00  0.00    -0.272 N 
ATOM      3  CA  PRO A   5      18.486  11.571  45.090  0.00  0.00    +0.152 C 
ATOM      4  CB  PRO A   5      17.412  12.671  45.282  0.00  0.00    +0.031 C 
ATOM      5  CG  PRO A   5      16.249  12.142  44.501  0.00  0.00    +0.024 C 
ATOM      6  CD  PRO A   5      16.881  11.571  43.235  0.00  0.00    +0.094 C 
ATOM      7  O   GLY A   4      20.068   9.818  43.564  0.00  0.00    -0.273 OA
ENDROOT
BRANCH   3   8
ATOM      8  C   PRO A   5      18.485  10.563  46.221  0.00  0.00    +0.241 C 
ATOM      9  O   PRO A   5      19.009  10.882  47.340  0.00  0.00    -0.273 OA
ATOM     10  N   TYR A   6      17.994   9.364  46.001  0.00  0.00    -0.297 N 
ATOM     11  H   TYR A   6      17.680   9.138  45.035  0.00  0.00    +0.150 HD
BRANCH  10  12
ATOM     12  CA  TYR A   6      17.861   8.344  47.004  0.00  0.00    +0.153 C 
BRANCH  12  13
ATOM     13  C   TYR A   6      18.757   7.142  46.903  0.00  0.00    +0.241 C 
ATOM     14  O   TYR A   6      18.471   6.110  47.551  0.00  0.00    -0.273 OA
ATOM     15  N   VAL A   7      19.777   7.284  46.068  0.00  0.00    -0.298 N 
ATOM     16  H   VAL A   7      19.890   8.173  45.541  0.00  0.00    +0.150 HD
BRANCH  15  17
ATOM     17  CA  VAL A   7      20.742   6.207  45.881  0.00  0.00    +0.137 C 
BRANCH  17  18
ATOM     18  CB  VAL A   7      21.933   6.642  44.986  0.00  0.00    +0.026 C 
ATOM     19  CG2 VAL A   7      22.638   7.914  45.428  0.00  0.00    +0.002 C 
ATOM     20  CG1 VAL A   7      22.866   5.471  44.788  0.00  0.00    +0.002 C 
ENDBRANCH  17  18
BRANCH  17  21
ATOM     21  C   VAL A   7      21.200   5.620  47.220  0.00  0.00    +0.227 C 
ATOM     22  O   VAL A   7      21.432   4.397  47.324  0.00  0.00    -0.286 OA
ENDBRANCH  17  21
ENDBRANCH  15  17
ENDBRANCH  12  13
BRANCH  12  23
ATOM     23  CB  TYR A   6      16.371   7.900  47.149  0.00  0.00    +0.055 C 
BRANCH  23  24
ATOM     24  CG  TYR A   6      15.463   9.115  47.269  0.00  0.00    -0.020 A 
ATOM     25  CD2 TYR A   6      15.693  10.046  48.286  0.00  0.00    -0.001 A 
ATOM     26  CE2 TYR A   6      14.867  11.168  48.433  0.00  0.00    +0.036 A 
ATOM     27  CZ  TYR A   6      13.809  11.343  47.556  0.00  0.00    +0.134 A 
ATOM     28  CE1 TYR A   6      13.556  10.423  46.535  0.00  0.00    +0.036 A 
ATOM     29  CD1 TYR A   6      14.389   9.305  46.416  0.00  0.00    -0.001 A 
BRANCH  27  30
ATOM     30  OH  TYR A   6      13.007  12.458  47.655  0.00  0.00    -0.506 OA
ATOM     31  HH  TYR A   6      13.306  13.011  48.420  0.00  0.00    +0.292 HD
ENDBRANCH  27  30
ENDBRANCH  23  24
ENDBRANCH  12  23
ENDBRANCH  10  12
ENDBRANCH   3   8
BRANCH   1  32
ATOM     32  CA  GLY A   4      18.519   9.790  41.722  0.00  0.00    +0.176 C 
BRANCH  32  35
ATOM     33  C   ALA A   3      19.834   7.762  41.254  0.00  0.00    +0.241 C 
ATOM     34  O   ALA A   3      19.198   7.068  42.069  0.00  0.00    -0.273 OA
ATOM     35  N   GLY A   4      19.602   9.047  41.055  0.00  0.00    -0.295 N 
ATOM     36  H   GLY A   4      20.217   9.561  40.392  0.00  0.00    +0.150 HD
BRANCH  33  37
ATOM     37  CA  ALA A   3      20.980   7.112  40.488  0.00  0.00    +0.149 C 
ATOM     38  CB  ALA A   3      22.303   6.983  41.188  0.00  0.00    +0.031 C 
BRANCH  37  40
ATOM     39  C   THR A   2      20.273   7.678  38.232  0.00  0.00    +0.243 C 
ATOM     40  N   ALA A   3      21.160   7.825  39.198  0.00  0.00    -0.297 N 
ATOM     41  H   ALA A   3      21.986   8.441  39.056  0.00  0.00    +0.150 HD
ATOM     42  O   THR A   2      19.254   6.955  38.307  0.00  0.00    -0.273 OA
BRANCH  39  43
ATOM     43  CA  THR A   2      20.526   8.548  36.999  0.00  0.00    +0.176 C 
BRANCH  43  46
ATOM     44  C   GLN A   1      20.368   6.711  35.472  0.00  0.00    +0.238 C 
ATOM     45  O   GLN A   1      21.192   6.039  36.087  0.00  0.00    -0.274 OA
ATOM     46  N   THR A   2      19.951   7.900  35.788  0.00  0.00    -0.295 N 
ATOM     47  H   THR A   2      19.235   8.386  35.211  0.00  0.00    +0.150 HD
BRANCH  44  48
ATOM     48  CA  GLN A   1      19.729   6.127  34.182  0.00  0.00    +0.145 C 
BRANCH  48  49
ATOM     49  N   GLN A   1      20.680   5.196  33.621  0.00  0.00    -0.238 NA
ATOM     50  H   GLN A   1      21.253   4.642  34.289  0.00  0.00    +0.142 HD
ENDBRANCH  48  49
BRANCH  48  51
ATOM     51  CB  GLN A   1      18.321   5.637  34.456  0.00  0.00    +0.036 C 
BRANCH  51  52
ATOM     52  CG  GLN A   1      17.577   5.133  33.247  0.00  0.00    +0.087 C 
BRANCH  52  53
ATOM     53  CD  GLN A   1      16.776   6.205  32.560  0.00  0.00    +0.219 C 
ATOM     54  OE1 GLN A   1      15.559   6.218  32.687  0.00  0.00    -0.275 OA
ATOM     55  NE2 GLN A   1      17.379   7.105  31.837  0.00  0.00    -0.329 N 
ATOM     56 HE21 GLN A   1      18.414   7.083  31.737  0.00  0.00    +0.145 HD
ATOM     57 HE22 GLN A   1      16.826   7.845  31.360  0.00  0.00    +0.145 HD
ENDBRANCH  52  53
ENDBRANCH  51  52
ENDBRANCH  48  51
ENDBRANCH  44  48
ENDBRANCH  43  46
BRANCH  43  58
ATOM     58  CB  THR A   2      19.865   9.980  37.185  0.00  0.00    +0.137 C 
ATOM     59  CG2 THR A   2      18.306   9.921  37.252  0.00  0.00    +0.034 C 
BRANCH  58  60
ATOM     60  OG1 THR A   2      20.456  10.598  38.320  0.00  0.00    -0.382 OA
ATOM     61  HG1 THR A   2      21.431  10.689  38.174  0.00  0.00    +0.210 HD
ENDBRANCH  58  60
ENDBRANCH  43  58
ENDBRANCH  39  43
ENDBRANCH  37  40
ENDBRANCH  33  37
ENDBRANCH  32  35
ENDBRANCH   1  32
TORSDOF 22
REMARK  Name = ../refined-set-2016/3pcg/3pcg_pocket.pdb
REMARK  142 active torsions:
REMARK  status: ('A' for Active; 'I' for Inactive)
REMARK    1  A    between atoms: _1  and  _3
REMARK    2  A    between atoms: _3  and  _4
REMARK    3  A    between atoms: _3  and  _6
REMARK    4  A    between atoms: _6  and  _7
REMARK    5  A    between atoms: _7  and  _8
REMARK    6  A    between atoms: _13  and  _15
REMARK    7  A    between atoms: _15  and  _16
REMARK    8  A    between atoms: _15  and  _18
REMARK    9  A    between atoms: _18  and  _19
REMARK   10  A    between atoms: _22  and  _24
REMARK   11  A    between atoms: _24  and  _25
REMARK   12  A    between atoms: _28  and  _30
REMARK   13  A    between atoms: _30  and  _31
REMARK   14  A    between atoms: _34  and  _35
REMARK   15  A    between atoms: _40  and  _42
REMARK   16  A    between atoms: _42  and  _43
REMARK   17  A    between atoms: _42  and  _45
REMARK   18  A    between atoms: _45  and  _46
REMARK   19  A    between atoms: _51  and  _52
REMARK   20  A    between atoms: _54  and  _56
REMARK   21  A    between atoms: _56  and  _57
REMARK   22  A    between atoms: _56  and  _59
REMARK   23  A    between atoms: _62  and  _64
REMARK   24  A    between atoms: _64  and  _65
REMARK   25  A    between atoms: _64  and  _67
REMARK   26  A    between atoms: _67  and  _68
REMARK   27  A    between atoms: _71  and  _73
REMARK   28  A    between atoms: _73  and  _74
REMARK   29  A    between atoms: _77  and  _79
REMARK   30  A    between atoms: _79  and  _80
REMARK   31  A    between atoms: _79  and  _82
REMARK   32  A    between atoms: _82  and  _83
REMARK   33  A    between atoms: _83  and  _84
REMARK   34  A    between atoms: _84  and  _85
REMARK   35  A    between atoms: _94  and  _96
REMARK   36  A    between atoms: _96  and  _97
REMARK   37  A    between atoms: _99  and  _101
REMARK   38  A    between atoms: _101  and  _102
REMARK   39  A    between atoms: _101  and  _104
REMARK   40  A    between atoms: _104  and  _105
REMARK   41  A    between atoms: _108  and  _110
REMARK   42  A    between atoms: _110  and  _111
REMARK   43  A    between atoms: _110  and  _113
REMARK   44  A    between atoms: _113  and  _114
REMARK   45  A    between atoms: _119  and  _121
REMARK   46  A    between atoms: _121  and  _122
REMARK   47  A    between atoms: _121  and  _124
REMARK   48  A    between atoms: _124  and  _125
REMARK   49  A    between atoms: _130  and  _131
REMARK   50  A    between atoms: _133  and  _135
REMARK   51  A    between atoms: _135  and  _136
REMARK   52  A    between atoms: _135  and  _138
REMARK   53  A    between atoms: _138  and  _139
REMARK   54  A    between atoms: _139  and  _140
REMARK   55  A    between atoms: _140  and  _141
REMARK   56  A    between atoms: _141  and  _142
REMARK   57  A    between atoms: _146  and  _148
REMARK   58  A    between atoms: _148  and  _149
REMARK   59  A    between atoms: _148  and  _151
REMARK   60  A    between atoms: _151  and  _152
REMARK   61  A    between atoms: _155  and  _157
REMARK   62  A    between atoms: _157  and  _158
REMARK   63  A    between atoms: _157  and  _160
REMARK   64  A    between atoms: _160  and  _161
REMARK   65  A    between atoms: _163  and  _165
REMARK   66  A    between atoms: _165  and  _166
REMARK   67  A    between atoms: _165  and  _168
REMARK   68  A    between atoms: _168  and  _169
REMARK   69  A    between atoms: _169  and  _170
REMARK   70  A    between atoms: _170  and  _171
REMARK   71  A    between atoms: _180  and  _182
REMARK   72  A    between atoms: _182  and  _183
REMARK   73  A    between atoms: _182  and  _185
REMARK   74  A    between atoms: _185  and  _186
REMARK   75  A    between atoms: _196  and  _198
REMARK   76  A    between atoms: _198  and  _199
REMARK   77  A    between atoms: _198  and  _201
REMARK   78  A    between atoms: _201  and  _202
REMARK   79  A    between atoms: _202  and  _203
REMARK   80  A    between atoms: _208  and  _210
REMARK   81  A    between atoms: _210  and  _211
REMARK   82  A    between atoms: _214  and  _216
REMARK   83  A    between atoms: _216  and  _217
REMARK   84  A    between atoms: _216  and  _219
REMARK   85  A    between atoms: _219  and  _220
REMARK   86  A    between atoms: _228  and  _230
REMARK   87  A    between atoms: _230  and  _231
REMARK   88  A    between atoms: _230  and  _233
REMARK   89  A    between atoms: _233  and  _234
REMARK   90  A    between atoms: _237  and  _239
REMARK   91  A    between atoms: _239  and  _240
REMARK   92  A    between atoms: _239  and  _242
REMARK   93  A    between atoms: _242  and  _243
REMARK   94  A    between atoms: _248  and  _249
REMARK   95  A    between atoms: _252  and  _253
REMARK   96  A    between atoms: _258  and  _260
REMARK   97  A    between atoms: _260  and  _261
REMARK   98  A    between atoms: _260  and  _263
REMARK   99  A    between atoms: _263  and  _264
REMARK  100  A    between atoms: _274  and  _276
REMARK  101  A    between atoms: _276  and  _277
REMARK  102  A    between atoms: _276  and  _279
REMARK  103  A    between atoms: _279  and  _280
REMARK  104  A    between atoms: _280  and  _281
REMARK  105  A    between atoms: _281  and  _282
REMARK  106  A    between atoms: _291  and  _293
REMARK  107  A    between atoms: _293  and  _294
REMARK  108  A    between atoms: _293  and  _296
REMARK  109  A    between atoms: _296  and  _297
REMARK  110  A    between atoms: _302  and  _304
REMARK  111  A    between atoms: _304  and  _305
REMARK  112  A    between atoms: _304  and  _307
REMARK  113  A    between atoms: _307  and  _308
REMARK  114  A    between atoms: _308  and  _309
REMARK  115  A    between atoms: _309  and  _310
REMARK  116  A    between atoms: _320  and  _321
REMARK  117  A    between atoms: _326  and  _328
REMARK  118  A    between atoms: _339  and  _342
REMARK  119  A    between atoms: _342  and  _343
REMARK  120  A    between atoms: _348  and  _349
REMARK  121  A    between atoms: _357  and  _359
REMARK  122  A    between atoms: _359  and  _360
REMARK  123  A    between atoms: _359  and  _362
REMARK  124  A    between atoms: _362  and  _363
REMARK  125  A    between atoms: _363  and  _364
REMARK  126  A    between atoms: _369  and  _371
REMARK  127  A    between atoms: _371  and  _372
REMARK  128  A    between atoms: _371  and  _374
REMARK  129  A    between atoms: _374  and  _375
REMARK  130  A    between atoms: _380  and  _381
REMARK  131  A    between atoms: _383  and  _385
REMARK  132  A    between atoms: _385  and  _386
REMARK  133  A    between atoms: _385  and  _388
REMARK  134  A    between atoms: _390  and  _392
REMARK  135  A    between atoms: _392  and  _393
REMARK  136  A    between atoms: _392  and  _395
REMARK  137  A    between atoms: _395  and  _396
REMARK  138  A    between atoms: _399  and  _401
REMARK  139  A    between atoms: _401  and  _402
REMARK  140  A    between atoms: _401  and  _404
REMARK  141  A    between atoms: _404  and  _405
REMARK  142  A    between atoms: _405  and  _406
REMARK                            x       y       z     vdW  Elec       q    Type
REMARK                         _______ _______ _______ _____ _____    ______ ____
ROOT
ATOM      1  CA  ASP A   1      23.974  13.714  47.264  0.00  0.00    +0.144 C 
ENDROOT
BRANCH   1   2
ATOM      2  N   ASP A   1      24.650  15.036  47.399  0.00  0.00    -0.239 NA
ATOM      3  H   ASP A   1      24.974  15.557  46.559  0.00  0.00    +0.142 HD
ENDBRANCH   1   2
BRANCH   1   4
ATOM      4  C   ASP A   1      24.728  12.747  46.389  0.00  0.00    +0.225 C 
ATOM      5  O   ASP A   1      24.090  11.845  45.788  0.00  0.00    -0.287 OA
ENDBRANCH   1   4
BRANCH   1   6
ATOM      6  CB  ASP A   1      22.514  14.003  46.813  0.00  0.00    +0.139 C 
BRANCH   6   7
ATOM      7  CG  ASP A   1      22.420  14.929  45.662  0.00  0.00    +0.367 C 
ATOM      8  OD2 ASP A   1      21.290  15.510  45.482  0.00  0.00    -0.246 OA
ATOM      9  OD1 ASP A   1      23.340  15.162  44.848  0.00  0.00    -0.246 OA
ENDBRANCH   6   7
ENDBRANCH   1   6
TORSDOF 4
REMARK  Name = ../refined-set-2016/3pcg/3pcg_pocket.pdb
REMARK  142 active torsions:
REMARK  status: ('A' for Active; 'I' for Inactive)
REMARK    1  A    between atoms: _1  and  _3
REMARK    2  A    between atoms: _3  and  _4
REMARK    3  A    between atoms: _3  and  _6
REMARK    4  A    between atoms: _6  and  _7
REMARK    5  A    between atoms: _7  and  _8
REMARK    6  A    between atoms: _13  and  _15
REMARK    7  A    between atoms: _15  and  _16
REMARK    8  A    between atoms: _15  and  _18
REMARK    9  A    between atoms: _18  and  _19
REMARK   10  A    between atoms: _22  and  _24
REMARK   11  A    between atoms: _24  and  _25
REMARK   12  A    between atoms: _28  and  _30
REMARK   13  A    between atoms: _30  and  _31
REMARK   14  A    between atoms: _34  and  _35
REMARK   15  A    between atoms: _40  and  _42
REMARK   16  A    between atoms: _42  and  _43
REMARK   17  A    between atoms: _42  and  _45
REMARK   18  A    between atoms: _45  and  _46
REMARK   19  A    between atoms: _51  and  _52
REMARK   20  A    between atoms: _54  and  _56
REMARK   21  A    between atoms: _56  and  _57
REMARK   22  A    between atoms: _56  and  _59
REMARK   23  A    between atoms: _62  and  _64
REMARK   24  A    between atoms: _64  and  _65
REMARK   25  A    between atoms: _64  and  _67
REMARK   26  A    between atoms: _67  and  _68
REMARK   27  A    between atoms: _71  and  _73
REMARK   28  A    between atoms: _73  and  _74
REMARK   29  A    between atoms: _77  and  _79
REMARK   30  A    between atoms: _79  and  _80
REMARK   31  A    between atoms: _79  and  _82
REMARK   32  A    between atoms: _82  and  _83
REMARK   33  A    between atoms: _83  and  _84
REMARK   34  A    between atoms: _84  and  _85
REMARK   35  A    between atoms: _94  and  _96
REMARK   36  A    between atoms: _96  and  _97
REMARK   37  A    between atoms: _99  and  _101
REMARK   38  A    between atoms: _101  and  _102
REMARK   39  A    between atoms: _101  and  _104
REMARK   40  A    between atoms: _104  and  _105
REMARK   41  A    between atoms: _108  and  _110
REMARK   42  A    between atoms: _110  and  _111
REMARK   43  A    between atoms: _110  and  _113
REMARK   44  A    between atoms: _113  and  _114
REMARK   45  A    between atoms: _119  and  _121
REMARK   46  A    between atoms: _121  and  _122
REMARK   47  A    between atoms: _121  and  _124
REMARK   48  A    between atoms: _124  and  _125
REMARK   49  A    between atoms: _130  and  _131
REMARK   50  A    between atoms: _133  and  _135
REMARK   51  A    between atoms: _135  and  _136
REMARK   52  A    between atoms: _135  and  _138
REMARK   53  A    between atoms: _138  and  _139
REMARK   54  A    between atoms: _139  and  _140
REMARK   55  A    between atoms: _140  and  _141
REMARK   56  A    between atoms: _141  and  _142
REMARK   57  A    between atoms: _146  and  _148
REMARK   58  A    between atoms: _148  and  _149
REMARK   59  A    between atoms: _148  and  _151
REMARK   60  A    between atoms: _151  and  _152
REMARK   61  A    between atoms: _155  and  _157
REMARK   62  A    between atoms: _157  and  _158
REMARK   63  A    between atoms: _157  and  _160
REMARK   64  A    between atoms: _160  and  _161
REMARK   65  A    between atoms: _163  and  _165
REMARK   66  A    between atoms: _165  and  _166
REMARK   67  A    between atoms: _165  and  _168
REMARK   68  A    between atoms: _168  and  _169
REMARK   69  A    between atoms: _169  and  _170
REMARK   70  A    between atoms: _170  and  _171
REMARK   71  A    between atoms: _180  and  _182
REMARK   72  A    between atoms: _182  and  _183
REMARK   73  A    between atoms: _182  and  _185
REMARK   74  A    between atoms: _185  and  _186
REMARK   75  A    between atoms: _196  and  _198
REMARK   76  A    between atoms: _198  and  _199
REMARK   77  A    between atoms: _198  and  _201
REMARK   78  A    between atoms: _201  and  _202
REMARK   79  A    between atoms: _202  and  _203
REMARK   80  A    between atoms: _208  and  _210
REMARK   81  A    between atoms: _210  and  _211
REMARK   82  A    between atoms: _214  and  _216
REMARK   83  A    between atoms: _216  and  _217
REMARK   84  A    between atoms: _216  and  _219
REMARK   85  A    between atoms: _219  and  _220
REMARK   86  A    between atoms: _228  and  _230
REMARK   87  A    between atoms: _230  and  _231
REMARK   88  A    between atoms: _230  and  _233
REMARK   89  A    between atoms: _233  and  _234
REMARK   90  A    between atoms: _237  and  _239
REMARK   91  A    between atoms: _239  and  _240
REMARK   92  A    between atoms: _239  and  _242
REMARK   93  A    between atoms: _242  and  _243
REMARK   94  A    between atoms: _248  and  _249
REMARK   95  A    between atoms: _252  and  _253
REMARK   96  A    between atoms: _258  and  _260
REMARK   97  A    between atoms: _260  and  _261
REMARK   98  A    between atoms: _260  and  _263
REMARK   99  A    between atoms: _263  and  _264
REMARK  100  A    between atoms: _274  and  _276
REMARK  101  A    between atoms: _276  and  _277
REMARK  102  A    between atoms: _276  and  _279
REMARK  103  A    between atoms: _279  and  _280
REMARK  104  A    between atoms: _280  and  _281
REMARK  105  A    between atoms: _281  and  _282
REMARK  106  A    between atoms: _291  and  _293
REMARK  107  A    between atoms: _293  and  _294
REMARK  108  A    between atoms: _293  and  _296
REMARK  109  A    between atoms: _296  and  _297
REMARK  110  A    between atoms: _302  and  _304
REMARK  111  A    between atoms: _304  and  _305
REMARK  112  A    between atoms: _304  and  _307
REMARK  113  A    between atoms: _307  and  _308
REMARK  114  A    between atoms: _308  and  _309
REMARK  115  A    between atoms: _309  and  _310
REMARK  116  A    between atoms: _320  and  _321
REMARK  117  A    between atoms: _326  and  _328
REMARK  118  A    between atoms: _339  and  _342
REMARK  119  A    between atoms: _342  and  _343
REMARK  120  A    between atoms: _348  and  _349
REMARK  121  A    between atoms: _357  and  _359
REMARK  122  A    between atoms: _359  and  _360
REMARK  123  A    between atoms: _359  and  _362
REMARK  124  A    between atoms: _362  and  _363
REMARK  125  A    between atoms: _363  and  _364
REMARK  126  A    between atoms: _369  and  _371
REMARK  127  A    between atoms: _371  and  _372
REMARK  128  A    between atoms: _371  and  _374
REMARK  129  A    between atoms: _374  and  _375
REMARK  130  A    between atoms: _380  and  _381
REMARK  131  A    between atoms: _383  and  _385
REMARK  132  A    between atoms: _385  and  _386
REMARK  133  A    between atoms: _385  and  _388
REMARK  134  A    between atoms: _390  and  _392
REMARK  135  A    between atoms: _392  and  _393
REMARK  136  A    between atoms: _392  and  _395
REMARK  137  A    between atoms: _395  and  _396
REMARK  138  A    between atoms: _399  and  _401
REMARK  139  A    between atoms: _401  and  _402
REMARK  140  A    between atoms: _401  and  _404
REMARK  141  A    between atoms: _404  and  _405
REMARK  142  A    between atoms: _405  and  _406
REMARK                            x       y       z     vdW  Elec       q    Type
REMARK                         _______ _______ _______ _____ _____    ______ ____
ROOT
ATOM      1  C   ARG A   2      21.477  13.944  39.761  0.00  0.00    +0.241 C 
ATOM      2  O   ARG A   2      22.383  14.660  40.145  0.00  0.00    -0.273 OA
ATOM      3  N   GLY A   3      20.902  14.035  38.577  0.00  0.00    -0.295 N 
ATOM      4  H   GLY A   3      20.127  13.388  38.327  0.00  0.00    +0.150 HD
ENDROOT
BRANCH   3   5
ATOM      5  CA  GLY A   3      21.351  15.044  37.613  0.00  0.00    +0.176 C 
BRANCH   5   6
ATOM      6  C   GLY A   3      22.382  14.459  36.660  0.00  0.00    +0.243 C 
ATOM      7  N   ILE A   4      22.957  13.349  37.036  0.00  0.00    -0.297 N 
ATOM      8  H   ILE A   4      22.671  12.928  37.943  0.00  0.00    +0.150 HD
ATOM      9  O   GLY A   3      22.610  15.083  35.589  0.00  0.00    -0.273 OA
BRANCH   7  10
ATOM     10  CA  ILE A   4      23.988  12.664  36.244  0.00  0.00    +0.149 C 
BRANCH  10  11
ATOM     11  C   ILE A   4      23.343  11.430  35.604  0.00  0.00    +0.241 C 
ATOM     12  O   ILE A   4      23.064  10.486  36.318  0.00  0.00    -0.273 OA
ATOM     13  N   ASN A   5      23.134  11.523  34.306  0.00  0.00    -0.298 N 
ATOM     14  H   ASN A   5      23.463  12.381  33.819  0.00  0.00    +0.150 HD
BRANCH  13  15
ATOM     15  CA  ASN A   5      22.468  10.493  33.509  0.00  0.00    +0.146 C 
BRANCH  15  16
ATOM     16  C   ASN A   5      23.286   9.225  33.414  0.00  0.00    +0.227 C 
ATOM     17  O   ASN A   5      22.708   8.151  33.426  0.00  0.00    -0.286 OA
ENDBRANCH  15  16
BRANCH  15  18
ATOM     18  CB  ASN A   5      21.996  11.047  32.159  0.00  0.00    +0.112 C 
BRANCH  18  19
ATOM     19  CG  ASN A   5      20.934  12.137  32.328  0.00  0.00    +0.222 C 
ATOM     20  OD1 ASN A   5      20.103  12.031  33.229  0.00  0.00    -0.275 OA
ATOM     21  ND2 ASN A   5      21.039  13.156  31.466  0.00  0.00    -0.329 N 
ATOM     22 HD21 ASN A   5      20.378  13.957  31.524  0.00  0.00    +0.145 HD
ATOM     23 HD22 ASN A   5      21.782  13.147  30.738  0.00  0.00    +0.145 HD
ENDBRANCH  18  19
ENDBRANCH  15  18
ENDBRANCH  13  15
ENDBRANCH  10  11
BRANCH  10  24
ATOM     24  CB  ILE A   4      25.233  12.379  37.131  0.00  0.00    +0.027 C 
ATOM     25  CG2 ILE A   4      26.406  11.528  36.559  0.00  0.00    +0.002 C 
BRANCH  24  26
ATOM     26  CG1 ILE A   4      25.820  13.740  37.654  0.00  0.00    +0.002 C 
ATOM     27  CD1 ILE A   4      26.926  13.486  38.723  0.00  0.00    +0.000 C 
ENDBRANCH  24  26
ENDBRANCH  10  24
ENDBRANCH   7  10
ENDBRANCH   5   6
ENDBRANCH   3   5
BRANCH   1  28
ATOM     28  CA  ARG A   2      20.867  12.839  40.704  0.00  0.00    +0.149 C 
BRANCH  28  30
ATOM     29  C   ALA A   1      23.065  11.811  40.754  0.00  0.00    +0.238 C 
ATOM     30  N   ARG A   2      22.048  12.370  41.443  0.00  0.00    -0.297 N 
ATOM     31  H   ARG A   2      22.099  12.467  42.477  0.00  0.00    +0.150 HD
ATOM     32  O   ALA A   1      23.008  11.582  39.523  0.00  0.00    -0.274 OA
BRANCH  29  33
ATOM     33  CA  ALA A   1      24.284  11.481  41.609  0.00  0.00    +0.145 C 
ATOM     34  CB  ALA A   1      25.146  12.781  41.759  0.00  0.00    +0.028 C 
BRANCH  33  35
ATOM     35  N   ALA A   1      25.144  10.492  40.957  0.00  0.00    -0.238 NA
ATOM     36  H   ALA A   1      24.843  10.102  40.041  0.00  0.00    +0.142 HD
ENDBRANCH  33  35
ENDBRANCH  29  33
ENDBRANCH  28  30
BRANCH  28  37
ATOM     37  CB  ARG A   2      19.816  13.479  41.580  0.00  0.00    +0.033 C 
BRANCH  37  38
ATOM     38  CG  ARG A   2      20.235  14.765  42.282  0.00  0.00    +0.045 C 
BRANCH  38  39
ATOM     39  CD  ARG A   2      19.149  15.114  43.276  0.00  0.00    +0.174 C 
BRANCH  39  40
ATOM     40  NE  ARG A   2      18.534  16.350  43.014  0.00  0.00    -0.265 N 
ATOM     41  CZ  ARG A   2      18.900  17.567  43.456  0.00  0.00    +0.342 C 
ATOM     42  NH2 ARG A   2      19.908  17.819  44.238  0.00  0.00    -0.292 N 
ATOM     43 HH21 ARG A   2      20.511  17.042  44.576  0.00  0.00    +0.255 HD
ATOM     44 HH22 ARG A   2      20.111  18.798  44.526  0.00  0.00    +0.255 HD
ATOM     45  NH1 ARG A   2      18.108  18.577  43.040  0.00  0.00    -0.292 N 
ATOM     46 HH11 ARG A   2      18.314  19.554  43.332  0.00  0.00    +0.255 HD
ATOM     47 HH12 ARG A   2      17.291  18.379  42.427  0.00  0.00    +0.255 HD
ATOM     48  HE  ARG A   2      17.693  16.320  42.403  0.00  0.00    +0.259 HD
ENDBRANCH  39  40
ENDBRANCH  38  39
ENDBRANCH  37  38
ENDBRANCH  28  37
ENDBRANCH   1  28
TORSDOF 18
REMARK  Name = ../refined-set-2016/3pcg/3pcg_pocket.pdb
REMARK  142 active torsions:
REMARK  status: ('A' for Active; 'I' for Inactive)
REMARK    1  A    between atoms: _1  and  _3
REMARK    2  A    between atoms: _3  and  _4
REMARK    3  A    between atoms: _3  and  _6
REMARK    4  A    between atoms: _6  and  _7
REMARK    5  A    between atoms: _7  and  _8
REMARK    6  A    between atoms: _13  and  _15
REMARK    7  A    between atoms: _15  and  _16
REMARK    8  A    between atoms: _15  and  _18
REMARK    9  A    between atoms: _18  and  _19
REMARK   10  A    between atoms: _22  and  _24
REMARK   11  A    between atoms: _24  and  _25
REMARK   12  A    between atoms: _28  and  _30
REMARK   13  A    between atoms: _30  and  _31
REMARK   14  A    between atoms: _34  and  _35
REMARK   15  A    between atoms: _40  and  _42
REMARK   16  A    between atoms: _42  and  _43
REMARK   17  A    between atoms: _42  and  _45
REMARK   18  A    between atoms: _45  and  _46
REMARK   19  A    between atoms: _51  and  _52
REMARK   20  A    between atoms: _54  and  _56
REMARK   21  A    between atoms: _56  and  _57
REMARK   22  A    between atoms: _56  and  _59
REMARK   23  A    between atoms: _62  and  _64
REMARK   24  A    between atoms: _64  and  _65
REMARK   25  A    between atoms: _64  and  _67
REMARK   26  A    between atoms: _67  and  _68
REMARK   27  A    between atoms: _71  and  _73
REMARK   28  A    between atoms: _73  and  _74
REMARK   29  A    between atoms: _77  and  _79
REMARK   30  A    between atoms: _79  and  _80
REMARK   31  A    between atoms: _79  and  _82
REMARK   32  A    between atoms: _82  and  _83
REMARK   33  A    between atoms: _83  and  _84
REMARK   34  A    between atoms: _84  and  _85
REMARK   35  A    between atoms: _94  and  _96
REMARK   36  A    between atoms: _96  and  _97
REMARK   37  A    between atoms: _99  and  _101
REMARK   38  A    between atoms: _101  and  _102
REMARK   39  A    between atoms: _101  and  _104
REMARK   40  A    between atoms: _104  and  _105
REMARK   41  A    between atoms: _108  and  _110
REMARK   42  A    between atoms: _110  and  _111
REMARK   43  A    between atoms: _110  and  _113
REMARK   44  A    between atoms: _113  and  _114
REMARK   45  A    between atoms: _119  and  _121
REMARK   46  A    between atoms: _121  and  _122
REMARK   47  A    between atoms: _121  and  _124
REMARK   48  A    between atoms: _124  and  _125
REMARK   49  A    between atoms: _130  and  _131
REMARK   50  A    between atoms: _133  and  _135
REMARK   51  A    between atoms: _135  and  _136
REMARK   52  A    between atoms: _135  and  _138
REMARK   53  A    between atoms: _138  and  _139
REMARK   54  A    between atoms: _139  and  _140
REMARK   55  A    between atoms: _140  and  _141
REMARK   56  A    between atoms: _141  and  _142
REMARK   57  A    between atoms: _146  and  _148
REMARK   58  A    between atoms: _148  and  _149
REMARK   59  A    between atoms: _148  and  _151
REMARK   60  A    between atoms: _151  and  _152
REMARK   61  A    between atoms: _155  and  _157
REMARK   62  A    between atoms: _157  and  _158
REMARK   63  A    between atoms: _157  and  _160
REMARK   64  A    between atoms: _160  and  _161
REMARK   65  A    between atoms: _163  and  _165
REMARK   66  A    between atoms: _165  and  _166
REMARK   67  A    between atoms: _165  and  _168
REMARK   68  A    between atoms: _168  and  _169
REMARK   69  A    between atoms: _169  and  _170
REMARK   70  A    between atoms: _170  and  _171
REMARK   71  A    between atoms: _180  and  _182
REMARK   72  A    between atoms: _182  and  _183
REMARK   73  A    between atoms: _182  and  _185
REMARK   74  A    between atoms: _185  and  _186
REMARK   75  A    between atoms: _196  and  _198
REMARK   76  A    between atoms: _198  and  _199
REMARK   77  A    between atoms: _198  and  _201
REMARK   78  A    between atoms: _201  and  _202
REMARK   79  A    between atoms: _202  and  _203
REMARK   80  A    between atoms: _208  and  _210
REMARK   81  A    between atoms: _210  and  _211
REMARK   82  A    between atoms: _214  and  _216
REMARK   83  A    between atoms: _216  and  _217
REMARK   84  A    between atoms: _216  and  _219
REMARK   85  A    between atoms: _219  and  _220
REMARK   86  A    between atoms: _228  and  _230
REMARK   87  A    between atoms: _230  and  _231
REMARK   88  A    between atoms: _230  and  _233
REMARK   89  A    between atoms: _233  and  _234
REMARK   90  A    between atoms: _237  and  _239
REMARK   91  A    between atoms: _239  and  _240
REMARK   92  A    between atoms: _239  and  _242
REMARK   93  A    between atoms: _242  and  _243
REMARK   94  A    between atoms: _248  and  _249
REMARK   95  A    between atoms: _252  and  _253
REMARK   96  A    between atoms: _258  and  _260
REMARK   97  A    between atoms: _260  and  _261
REMARK   98  A    between atoms: _260  and  _263
REMARK   99  A    between atoms: _263  and  _264
REMARK  100  A    between atoms: _274  and  _276
REMARK  101  A    between atoms: _276  and  _277
REMARK  102  A    between atoms: _276  and  _279
REMARK  103  A    between atoms: _279  and  _280
REMARK  104  A    between atoms: _280  and  _281
REMARK  105  A    between atoms: _281  and  _282
REMARK  106  A    between atoms: _291  and  _293
REMARK  107  A    between atoms: _293  and  _294
REMARK  108  A    between atoms: _293  and  _296
REMARK  109  A    between atoms: _296  and  _297
REMARK  110  A    between atoms: _302  and  _304
REMARK  111  A    between atoms: _304  and  _305
REMARK  112  A    between atoms: _304  and  _307
REMARK  113  A    between atoms: _307  and  _308
REMARK  114  A    between atoms: _308  and  _309
REMARK  115  A    between atoms: _309  and  _310
REMARK  116  A    between atoms: _320  and  _321
REMARK  117  A    between atoms: _326  and  _328
REMARK  118  A    between atoms: _339  and  _342
REMARK  119  A    between atoms: _342  and  _343
REMARK  120  A    between atoms: _348  and  _349
REMARK  121  A    between atoms: _357  and  _359
REMARK  122  A    between atoms: _359  and  _360
REMARK  123  A    between atoms: _359  and  _362
REMARK  124  A    between atoms: _362  and  _363
REMARK  125  A    between atoms: _363  and  _364
REMARK  126  A    between atoms: _369  and  _371
REMARK  127  A    between atoms: _371  and  _372
REMARK  128  A    between atoms: _371  and  _374
REMARK  129  A    between atoms: _374  and  _375
REMARK  130  A    between atoms: _380  and  _381
REMARK  131  A    between atoms: _383  and  _385
REMARK  132  A    between atoms: _385  and  _386
REMARK  133  A    between atoms: _385  and  _388
REMARK  134  A    between atoms: _390  and  _392
REMARK  135  A    between atoms: _392  and  _393
REMARK  136  A    between atoms: _392  and  _395
REMARK  137  A    between atoms: _395  and  _396
REMARK  138  A    between atoms: _399  and  _401
REMARK  139  A    between atoms: _401  and  _402
REMARK  140  A    between atoms: _401  and  _404
REMARK  141  A    between atoms: _404  and  _405
REMARK  142  A    between atoms: _405  and  _406
REMARK                            x       y       z     vdW  Elec       q    Type
REMARK                         _______ _______ _______ _____ _____    ______ ____
ROOT
ATOM      1  CA  LYS A   2      16.590  20.271  35.111  0.00  0.00    +0.149 C 
ENDROOT
BRANCH   1   3
ATOM      2  C   TYR A   1      16.645  18.140  33.868  0.00  0.00    +0.239 C 
ATOM      3  N   LYS A   2      16.022  19.071  34.558  0.00  0.00    -0.297 N 
ATOM      4  H   LYS A   2      15.006  18.923  34.722  0.00  0.00    +0.150 HD
ATOM      5  O   TYR A   1      17.861  18.071  33.663  0.00  0.00    -0.274 OA
BRANCH   2   6
ATOM      6  CA  TYR A   1      15.718  17.033  33.270  0.00  0.00    +0.149 C 
BRANCH   6   7
ATOM      7  N   TYR A   1      15.397  17.620  31.941  0.00  0.00    -0.238 NA
ATOM      8  H   TYR A   1      16.058  17.504  31.147  0.00  0.00    +0.142 HD
ENDBRANCH   6   7
BRANCH   6   9
ATOM      9  CB  TYR A   1      16.416  15.697  33.140  0.00  0.00    +0.053 C 
BRANCH   9  10
ATOM     10  CG  TYR A   1      16.860  15.122  34.464  0.00  0.00    -0.020 A 
ATOM     11  CD2 TYR A   1      16.178  15.506  35.646  0.00  0.00    -0.001 A 
ATOM     12  CE2 TYR A   1      16.563  14.966  36.875  0.00  0.00    +0.036 A 
ATOM     13  CZ  TYR A   1      17.566  14.030  36.931  0.00  0.00    +0.134 A 
ATOM     14  CE1 TYR A   1      18.277  13.661  35.760  0.00  0.00    +0.036 A 
ATOM     15  CD1 TYR A   1      17.853  14.186  34.542  0.00  0.00    -0.001 A 
BRANCH  13  16
ATOM     16  OH  TYR A   1      18.027  13.446  38.090  0.00  0.00    -0.506 OA
ATOM     17  HH  TYR A   1      17.479  13.755  38.854  0.00  0.00    +0.292 HD
ENDBRANCH  13  16
ENDBRANCH   9  10
ENDBRANCH   6   9
ENDBRANCH   2   6
ENDBRANCH   1   3
BRANCH   1  18
ATOM     18  C   LYS A   2      17.913  20.217  35.827  0.00  0.00    +0.241 C 
ATOM     19  N   THR A   3      18.025  19.226  36.687  0.00  0.00    -0.295 N 
ATOM     20  H   THR A   3      17.227  18.570  36.810  0.00  0.00    +0.150 HD
ATOM     21  O   LYS A   2      18.854  21.004  35.543  0.00  0.00    -0.273 OA
BRANCH  19  22
ATOM     22  CA  THR A   3      19.254  19.021  37.483  0.00  0.00    +0.176 C 
BRANCH  22  23
ATOM     23  C   THR A   3      20.437  18.661  36.606  0.00  0.00    +0.243 C 
ATOM     24  O   THR A   3      21.571  18.841  37.066  0.00  0.00    -0.273 OA
ATOM     25  N   SER A   4      20.171  18.105  35.435  0.00  0.00    -0.296 N 
ATOM     26  H   SER A   4      19.191  17.940  35.128  0.00  0.00    +0.150 HD
BRANCH  25  27
ATOM     27  CA  SER A   4      21.323  17.725  34.574  0.00  0.00    +0.166 C 
BRANCH  27  28
ATOM     28  CB  SER A   4      22.076  18.962  34.123  0.00  0.00    +0.229 C 
ATOM     29  OG  SER A   4      23.296  18.878  33.767  0.00  0.00    -0.286 OA
ENDBRANCH  27  28
BRANCH  27  30
ATOM     30  C   SER A   4      20.819  16.875  33.406  0.00  0.00    +0.165 C 
BRANCH  30  31
ATOM     31  O   SER A   4      20.298  17.658  32.357  0.00  0.00    -0.380 OA
ATOM     32  H   SER A   4      19.538  18.196  32.694  0.00  0.00    +0.211 HD
ENDBRANCH  30  31
ENDBRANCH  27  30
ENDBRANCH  25  27
ENDBRANCH  22  23
BRANCH  22  33
ATOM     33  CB  THR A   3      19.011  17.911  38.593  0.00  0.00    +0.137 C 
ATOM     34  CG2 THR A   3      20.174  17.812  39.574  0.00  0.00    +0.034 C 
BRANCH  33  35
ATOM     35  OG1 THR A   3      17.854  18.464  39.334  0.00  0.00    -0.382 OA
ATOM     36  HG1 THR A   3      17.088  18.569  38.716  0.00  0.00    +0.210 HD
ENDBRANCH  33  35
ENDBRANCH  22  33
ENDBRANCH  19  22
ENDBRANCH   1  18
BRANCH   1  37
ATOM     37  CB  LYS A   2      15.566  21.118  35.895  0.00  0.00    +0.029 C 
BRANCH  37  38
ATOM     38  CG  LYS A   2      14.360  21.477  34.969  0.00  0.00    +0.000 C 
BRANCH  38  39
ATOM     39  CD  LYS A   2      13.384  22.348  35.732  0.00  0.00    -0.024 C 
BRANCH  39  40
ATOM     40  CE  LYS A   2      12.269  22.903  34.882  0.00  0.00    -0.086 C 
BRANCH  40  41
ATOM     41  NZ  LYS A   2      11.325  23.690  35.746  0.00  0.00    +0.380 N 
ATOM     42  HZ1 LYS A   2      10.927  23.068  36.478  0.00  0.00    -0.089 HD
ATOM     43  HZ2 LYS A   2      11.840  24.473  36.197  0.00  0.00    -0.089 HD
ATOM     44  HZ3 LYS A   2      10.556  24.072  35.159  0.00  0.00    -0.089 HD
ENDBRANCH  40  41
ENDBRANCH  39  40
ENDBRANCH  38  39
ENDBRANCH  37  38
ENDBRANCH   1  37
TORSDOF 20
REMARK  Name = ../refined-set-2016/3pcg/3pcg_pocket.pdb
REMARK  142 active torsions:
REMARK  status: ('A' for Active; 'I' for Inactive)
REMARK    1  A    between atoms: _1  and  _3
REMARK    2  A    between atoms: _3  and  _4
REMARK    3  A    between atoms: _3  and  _6
REMARK    4  A    between atoms: _6  and  _7
REMARK    5  A    between atoms: _7  and  _8
REMARK    6  A    between atoms: _13  and  _15
REMARK    7  A    between atoms: _15  and  _16
REMARK    8  A    between atoms: _15  and  _18
REMARK    9  A    between atoms: _18  and  _19
REMARK   10  A    between atoms: _22  and  _24
REMARK   11  A    between atoms: _24  and  _25
REMARK   12  A    between atoms: _28  and  _30
REMARK   13  A    between atoms: _30  and  _31
REMARK   14  A    between atoms: _34  and  _35
REMARK   15  A    between atoms: _40  and  _42
REMARK   16  A    between atoms: _42  and  _43
REMARK   17  A    between atoms: _42  and  _45
REMARK   18  A    between atoms: _45  and  _46
REMARK   19  A    between atoms: _51  and  _52
REMARK   20  A    between atoms: _54  and  _56
REMARK   21  A    between atoms: _56  and  _57
REMARK   22  A    between atoms: _56  and  _59
REMARK   23  A    between atoms: _62  and  _64
REMARK   24  A    between atoms: _64  and  _65
REMARK   25  A    between atoms: _64  and  _67
REMARK   26  A    between atoms: _67  and  _68
REMARK   27  A    between atoms: _71  and  _73
REMARK   28  A    between atoms: _73  and  _74
REMARK   29  A    between atoms: _77  and  _79
REMARK   30  A    between atoms: _79  and  _80
REMARK   31  A    between atoms: _79  and  _82
REMARK   32  A    between atoms: _82  and  _83
REMARK   33  A    between atoms: _83  and  _84
REMARK   34  A    between atoms: _84  and  _85
REMARK   35  A    between atoms: _94  and  _96
REMARK   36  A    between atoms: _96  and  _97
REMARK   37  A    between atoms: _99  and  _101
REMARK   38  A    between atoms: _101  and  _102
REMARK   39  A    between atoms: _101  and  _104
REMARK   40  A    between atoms: _104  and  _105
REMARK   41  A    between atoms: _108  and  _110
REMARK   42  A    between atoms: _110  and  _111
REMARK   43  A    between atoms: _110  and  _113
REMARK   44  A    between atoms: _113  and  _114
REMARK   45  A    between atoms: _119  and  _121
REMARK   46  A    between atoms: _121  and  _122
REMARK   47  A    between atoms: _121  and  _124
REMARK   48  A    between atoms: _124  and  _125
REMARK   49  A    between atoms: _130  and  _131
REMARK   50  A    between atoms: _133  and  _135
REMARK   51  A    between atoms: _135  and  _136
REMARK   52  A    between atoms: _135  and  _138
REMARK   53  A    between atoms: _138  and  _139
REMARK   54  A    between atoms: _139  and  _140
REMARK   55  A    between atoms: _140  and  _141
REMARK   56  A    between atoms: _141  and  _142
REMARK   57  A    between atoms: _146  and  _148
REMARK   58  A    between atoms: _148  and  _149
REMARK   59  A    between atoms: _148  and  _151
REMARK   60  A    between atoms: _151  and  _152
REMARK   61  A    between atoms: _155  and  _157
REMARK   62  A    between atoms: _157  and  _158
REMARK   63  A    between atoms: _157  and  _160
REMARK   64  A    between atoms: _160  and  _161
REMARK   65  A    between atoms: _163  and  _165
REMARK   66  A    between atoms: _165  and  _166
REMARK   67  A    between atoms: _165  and  _168
REMARK   68  A    between atoms: _168  and  _169
REMARK   69  A    between atoms: _169  and  _170
REMARK   70  A    between atoms: _170  and  _171
REMARK   71  A    between atoms: _180  and  _182
REMARK   72  A    between atoms: _182  and  _183
REMARK   73  A    between atoms: _182  and  _185
REMARK   74  A    between atoms: _185  and  _186
REMARK   75  A    between atoms: _196  and  _198
REMARK   76  A    between atoms: _198  and  _199
REMARK   77  A    between atoms: _198  and  _201
REMARK   78  A    between atoms: _201  and  _202
REMARK   79  A    between atoms: _202  and  _203
REMARK   80  A    between atoms: _208  and  _210
REMARK   81  A    between atoms: _210  and  _211
REMARK   82  A    between atoms: _214  and  _216
REMARK   83  A    between atoms: _216  and  _217
REMARK   84  A    between atoms: _216  and  _219
REMARK   85  A    between atoms: _219  and  _220
REMARK   86  A    between atoms: _228  and  _230
REMARK   87  A    between atoms: _230  and  _231
REMARK   88  A    between atoms: _230  and  _233
REMARK   89  A    between atoms: _233  and  _234
REMARK   90  A    between atoms: _237  and  _239
REMARK   91  A    between atoms: _239  and  _240
REMARK   92  A    between atoms: _239  and  _242
REMARK   93  A    between atoms: _242  and  _243
REMARK   94  A    between atoms: _248  and  _249
REMARK   95  A    between atoms: _252  and  _253
REMARK   96  A    between atoms: _258  and  _260
REMARK   97  A    between atoms: _260  and  _261
REMARK   98  A    between atoms: _260  and  _263
REMARK   99  A    between atoms: _263  and  _264
REMARK  100  A    between atoms: _274  and  _276
REMARK  101  A    between atoms: _276  and  _277
REMARK  102  A    between atoms: _276  and  _279
REMARK  103  A    between atoms: _279  and  _280
REMARK  104  A    between atoms: _280  and  _281
REMARK  105  A    between atoms: _281  and  _282
REMARK  106  A    between atoms: _291  and  _293
REMARK  107  A    between atoms: _293  and  _294
REMARK  108  A    between atoms: _293  and  _296
REMARK  109  A    between atoms: _296  and  _297
REMARK  110  A    between atoms: _302  and  _304
REMARK  111  A    between atoms: _304  and  _305
REMARK  112  A    between atoms: _304  and  _307
REMARK  113  A    between atoms: _307  and  _308
REMARK  114  A    between atoms: _308  and  _309
REMARK  115  A    between atoms: _309  and  _310
REMARK  116  A    between atoms: _320  and  _321
REMARK  117  A    between atoms: _326  and  _328
REMARK  118  A    between atoms: _339  and  _342
REMARK  119  A    between atoms: _342  and  _343
REMARK  120  A    between atoms: _348  and  _349
REMARK  121  A    between atoms: _357  and  _359
REMARK  122  A    between atoms: _359  and  _360
REMARK  123  A    between atoms: _359  and  _362
REMARK  124  A    between atoms: _362  and  _363
REMARK  125  A    between atoms: _363  and  _364
REMARK  126  A    between atoms: _369  and  _371
REMARK  127  A    between atoms: _371  and  _372
REMARK  128  A    between atoms: _371  and  _374
REMARK  129  A    between atoms: _374  and  _375
REMARK  130  A    between atoms: _380  and  _381
REMARK  131  A    between atoms: _383  and  _385
REMARK  132  A    between atoms: _385  and  _386
REMARK  133  A    between atoms: _385  and  _388
REMARK  134  A    between atoms: _390  and  _392
REMARK  135  A    between atoms: _392  and  _393
REMARK  136  A    between atoms: _392  and  _395
REMARK  137  A    between atoms: _395  and  _396
REMARK  138  A    between atoms: _399  and  _401
REMARK  139  A    between atoms: _401  and  _402
REMARK  140  A    between atoms: _401  and  _404
REMARK  141  A    between atoms: _404  and  _405
REMARK  142  A    between atoms: _405  and  _406
REMARK                            x       y       z     vdW  Elec       q    Type
REMARK                         _______ _______ _______ _____ _____    ______ ____
ROOT
ATOM      1  NE  ARG A   1      23.670  18.320  41.217  0.00  0.00    -0.265 N 
ATOM      2  CZ  ARG A   1      23.341  17.664  42.343  0.00  0.00    +0.342 C 
ATOM      3  NH2 ARG A   1      22.918  18.442  43.343  0.00  0.00    -0.292 N 
ATOM      4 HH21 ARG A   1      22.643  18.017  44.251  0.00  0.00    +0.255 HD
ATOM      5 HH22 ARG A   1      22.864  19.472  43.213  0.00  0.00    +0.255 HD
ATOM      6  NH1 ARG A   1      23.330  16.348  42.405  0.00  0.00    -0.292 N 
ATOM      7 HH11 ARG A   1      23.071  15.871  43.292  0.00  0.00    +0.255 HD
ATOM      8 HH12 ARG A   1      23.581  15.786  41.567  0.00  0.00    +0.255 HD
ATOM      9  HE  ARG A   1      23.691  19.360  41.203  0.00  0.00    +0.259 HD
ENDROOT
BRANCH   1  10
ATOM     10  CD  ARG A   1      23.998  17.560  40.012  0.00  0.00    +0.174 C 
BRANCH  10  11
ATOM     11  CG  ARG A   1      24.510  18.511  38.977  0.00  0.00    +0.045 C 
BRANCH  11  12
ATOM     12  CB  ARG A   1      24.936  17.688  37.740  0.00  0.00    +0.029 C 
BRANCH  12  13
ATOM     13  CA  ARG A   1      25.634  18.640  36.721  0.00  0.00    +0.133 C 
BRANCH  13  14
ATOM     14  N   ARG A   1      24.818  19.814  36.418  0.00  0.00    -0.239 NA
ATOM     15  H   ARG A   1      23.864  19.691  36.023  0.00  0.00    +0.142 HD
ENDBRANCH  13  14
BRANCH  13  16
ATOM     16  C   ARG A   1      26.164  17.863  35.550  0.00  0.00    +0.224 C 
ATOM     17  O   ARG A   1      26.381  16.631  35.660  0.00  0.00    -0.287 OA
ENDBRANCH  13  16
ENDBRANCH  12  13
ENDBRANCH  11  12
ENDBRANCH  10  11
ENDBRANCH   1  10
TORSDOF 6
REMARK  Name = ../refined-set-2016/3pcg/3pcg_pocket.pdb
REMARK  142 active torsions:
REMARK  status: ('A' for Active; 'I' for Inactive)
REMARK    1  A    between atoms: _1  and  _3
REMARK    2  A    between atoms: _3  and  _4
REMARK    3  A    between atoms: _3  and  _6
REMARK    4  A    between atoms: _6  and  _7
REMARK    5  A    between atoms: _7  and  _8
REMARK    6  A    between atoms: _13  and  _15
REMARK    7  A    between atoms: _15  and  _16
REMARK    8  A    between atoms: _15  and  _18
REMARK    9  A    between atoms: _18  and  _19
REMARK   10  A    between atoms: _22  and  _24
REMARK   11  A    between atoms: _24  and  _25
REMARK   12  A    between atoms: _28  and  _30
REMARK   13  A    between atoms: _30  and  _31
REMARK   14  A    between atoms: _34  and  _35
REMARK   15  A    between atoms: _40  and  _42
REMARK   16  A    between atoms: _42  and  _43
REMARK   17  A    between atoms: _42  and  _45
REMARK   18  A    between atoms: _45  and  _46
REMARK   19  A    between atoms: _51  and  _52
REMARK   20  A    between atoms: _54  and  _56
REMARK   21  A    between atoms: _56  and  _57
REMARK   22  A    between atoms: _56  and  _59
REMARK   23  A    between atoms: _62  and  _64
REMARK   24  A    between atoms: _64  and  _65
REMARK   25  A    between atoms: _64  and  _67
REMARK   26  A    between atoms: _67  and  _68
REMARK   27  A    between atoms: _71  and  _73
REMARK   28  A    between atoms: _73  and  _74
REMARK   29  A    between atoms: _77  and  _79
REMARK   30  A    between atoms: _79  and  _80
REMARK   31  A    between atoms: _79  and  _82
REMARK   32  A    between atoms: _82  and  _83
REMARK   33  A    between atoms: _83  and  _84
REMARK   34  A    between atoms: _84  and  _85
REMARK   35  A    between atoms: _94  and  _96
REMARK   36  A    between atoms: _96  and  _97
REMARK   37  A    between atoms: _99  and  _101
REMARK   38  A    between atoms: _101  and  _102
REMARK   39  A    between atoms: _101  and  _104
REMARK   40  A    between atoms: _104  and  _105
REMARK   41  A    between atoms: _108  and  _110
REMARK   42  A    between atoms: _110  and  _111
REMARK   43  A    between atoms: _110  and  _113
REMARK   44  A    between atoms: _113  and  _114
REMARK   45  A    between atoms: _119  and  _121
REMARK   46  A    between atoms: _121  and  _122
REMARK   47  A    between atoms: _121  and  _124
REMARK   48  A    between atoms: _124  and  _125
REMARK   49  A    between atoms: _130  and  _131
REMARK   50  A    between atoms: _133  and  _135
REMARK   51  A    between atoms: _135  and  _136
REMARK   52  A    between atoms: _135  and  _138
REMARK   53  A    between atoms: _138  and  _139
REMARK   54  A    between atoms: _139  and  _140
REMARK   55  A    between atoms: _140  and  _141
REMARK   56  A    between atoms: _141  and  _142
REMARK   57  A    between atoms: _146  and  _148
REMARK   58  A    between atoms: _148  and  _149
REMARK   59  A    between atoms: _148  and  _151
REMARK   60  A    between atoms: _151  and  _152
REMARK   61  A    between atoms: _155  and  _157
REMARK   62  A    between atoms: _157  and  _158
REMARK   63  A    between atoms: _157  and  _160
REMARK   64  A    between atoms: _160  and  _161
REMARK   65  A    between atoms: _163  and  _165
REMARK   66  A    between atoms: _165  and  _166
REMARK   67  A    between atoms: _165  and  _168
REMARK   68  A    between atoms: _168  and  _169
REMARK   69  A    between atoms: _169  and  _170
REMARK   70  A    between atoms: _170  and  _171
REMARK   71  A    between atoms: _180  and  _182
REMARK   72  A    between atoms: _182  and  _183
REMARK   73  A    between atoms: _182  and  _185
REMARK   74  A    between atoms: _185  and  _186
REMARK   75  A    between atoms: _196  and  _198
REMARK   76  A    between atoms: _198  and  _199
REMARK   77  A    between atoms: _198  and  _201
REMARK   78  A    between atoms: _201  and  _202
REMARK   79  A    between atoms: _202  and  _203
REMARK   80  A    between atoms: _208  and  _210
REMARK   81  A    between atoms: _210  and  _211
REMARK   82  A    between atoms: _214  and  _216
REMARK   83  A    between atoms: _216  and  _217
REMARK   84  A    between atoms: _216  and  _219
REMARK   85  A    between atoms: _219  and  _220
REMARK   86  A    between atoms: _228  and  _230
REMARK   87  A    between atoms: _230  and  _231
REMARK   88  A    between atoms: _230  and  _233
REMARK   89  A    between atoms: _233  and  _234
REMARK   90  A    between atoms: _237  and  _239
REMARK   91  A    between atoms: _239  and  _240
REMARK   92  A    between atoms: _239  and  _242
REMARK   93  A    between atoms: _242  and  _243
REMARK   94  A    between atoms: _248  and  _249
REMARK   95  A    between atoms: _252  and  _253
REMARK   96  A    between atoms: _258  and  _260
REMARK   97  A    between atoms: _260  and  _261
REMARK   98  A    between atoms: _260  and  _263
REMARK   99  A    between atoms: _263  and  _264
REMARK  100  A    between atoms: _274  and  _276
REMARK  101  A    between atoms: _276  and  _277
REMARK  102  A    between atoms: _276  and  _279
REMARK  103  A    between atoms: _279  and  _280
REMARK  104  A    between atoms: _280  and  _281
REMARK  105  A    between atoms: _281  and  _282
REMARK  106  A    between atoms: _291  and  _293
REMARK  107  A    between atoms: _293  and  _294
REMARK  108  A    between atoms: _293  and  _296
REMARK  109  A    between atoms: _296  and  _297
REMARK  110  A    between atoms: _302  and  _304
REMARK  111  A    between atoms: _304  and  _305
REMARK  112  A    between atoms: _304  and  _307
REMARK  113  A    between atoms: _307  and  _308
REMARK  114  A    between atoms: _308  and  _309
REMARK  115  A    between atoms: _309  and  _310
REMARK  116  A    between atoms: _320  and  _321
REMARK  117  A    between atoms: _326  and  _328
REMARK  118  A    between atoms: _339  and  _342
REMARK  119  A    between atoms: _342  and  _343
REMARK  120  A    between atoms: _348  and  _349
REMARK  121  A    between atoms: _357  and  _359
REMARK  122  A    between atoms: _359  and  _360
REMARK  123  A    between atoms: _359  and  _362
REMARK  124  A    between atoms: _362  and  _363
REMARK  125  A    between atoms: _363  and  _364
REMARK  126  A    between atoms: _369  and  _371
REMARK  127  A    between atoms: _371  and  _372
REMARK  128  A    between atoms: _371  and  _374
REMARK  129  A    between atoms: _374  and  _375
REMARK  130  A    between atoms: _380  and  _381
REMARK  131  A    between atoms: _383  and  _385
REMARK  132  A    between atoms: _385  and  _386
REMARK  133  A    between atoms: _385  and  _388
REMARK  134  A    between atoms: _390  and  _392
REMARK  135  A    between atoms: _392  and  _393
REMARK  136  A    between atoms: _392  and  _395
REMARK  137  A    between atoms: _395  and  _396
REMARK  138  A    between atoms: _399  and  _401
REMARK  139  A    between atoms: _401  and  _402
REMARK  140  A    between atoms: _401  and  _404
REMARK  141  A    between atoms: _404  and  _405
REMARK  142  A    between atoms: _405  and  _406
REMARK                            x       y       z     vdW  Elec       q    Type
REMARK                         _______ _______ _______ _____ _____    ______ ____
ROOT
ATOM      1  C   TRP A   1      14.927   0.685  45.061  0.00  0.00    +0.239 C 
ATOM      2  N   GLN A   2      13.938   0.971  45.867  0.00  0.00    -0.297 N 
ATOM      3  H   GLN A   2      14.060   0.818  46.888  0.00  0.00    +0.150 HD
ATOM      4  O   TRP A   1      14.891   0.841  43.797  0.00  0.00    -0.274 OA
ENDROOT
BRANCH   1   5
ATOM      5  CA  TRP A   1      16.151   0.102  45.766  0.00  0.00    +0.149 C 
BRANCH   5   6
ATOM      6  N   TRP A   1      16.793  -0.782  44.818  0.00  0.00    -0.238 NA
ATOM      7  H   TRP A   1      16.651  -0.568  43.810  0.00  0.00    +0.142 HD
ENDBRANCH   5   6
BRANCH   5   8
ATOM      8  CB  TRP A   1      17.100   1.073  46.490  0.00  0.00    +0.054 C 
BRANCH   8   9
ATOM      9  CG  TRP A   1      17.617   2.226  45.695  0.00  0.00    -0.002 A 
ATOM     10  CD1 TRP A   1      17.138   3.505  45.652  0.00  0.00    +0.068 A 
ATOM     11  NE1 TRP A   1      17.907   4.279  44.767  0.00  0.00    -0.352 N 
ATOM     12  HE1 TRP A   1      17.779   5.292  44.571  0.00  0.00    +0.166 HD
ATOM     13  CE2 TRP A   1      18.842   3.474  44.215  0.00  0.00    +0.056 A 
ATOM     14  CZ2 TRP A   1      19.815   3.793  43.249  0.00  0.00    +0.017 A 
ATOM     15  CH2 TRP A   1      20.686   2.783  42.890  0.00  0.00    +0.001 A 
ATOM     16  CZ3 TRP A   1      20.555   1.492  43.401  0.00  0.00    +0.000 A 
ATOM     17  CE3 TRP A   1      19.586   1.186  44.362  0.00  0.00    +0.001 A 
ATOM     18  CD2 TRP A   1      18.756   2.198  44.789  0.00  0.00    +0.013 A 
ENDBRANCH   8   9
ENDBRANCH   5   8
ENDBRANCH   1   5
BRANCH   2  19
ATOM     19  CA  GLN A   2      12.636   1.512  45.365  0.00  0.00    +0.149 C 
BRANCH  19  20
ATOM     20  C   GLN A   2      11.805   2.117  46.501  0.00  0.00    +0.241 C 
ATOM     21  O   GLN A   2      12.156   1.994  47.706  0.00  0.00    -0.273 OA
ATOM     22  N   ALA A   3      10.737   2.792  46.084  0.00  0.00    -0.298 N 
ATOM     23  H   ALA A   3      10.594   2.889  45.058  0.00  0.00    +0.150 HD
BRANCH  22  24
ATOM     24  CA  ALA A   3       9.754   3.405  46.969  0.00  0.00    +0.137 C 
ATOM     25  CB  ALA A   3       9.037   4.535  46.286  0.00  0.00    +0.030 C 
BRANCH  24  26
ATOM     26  C   ALA A   3       8.732   2.300  47.376  0.00  0.00    +0.227 C 
ATOM     27  O   ALA A   3       8.765   1.160  46.878  0.00  0.00    -0.286 OA
ENDBRANCH  24  26
ENDBRANCH  22  24
ENDBRANCH  19  20
BRANCH  19  28
ATOM     28  CB  GLN A   2      11.873   0.276  44.784  0.00  0.00    +0.039 C 
BRANCH  28  29
ATOM     29  CG  GLN A   2      11.596  -0.785  45.836  0.00  0.00    +0.087 C 
BRANCH  29  30
ATOM     30  CD  GLN A   2      10.519  -1.807  45.455  0.00  0.00    +0.219 C 
ATOM     31  NE2 GLN A   2       9.260  -1.478  45.728  0.00  0.00    -0.329 N 
ATOM     32 HE21 GLN A   2       9.048  -0.571  46.191  0.00  0.00    +0.145 HD
ATOM     33 HE22 GLN A   2       8.487  -2.128  45.479  0.00  0.00    +0.145 HD
ATOM     34  OE1 GLN A   2      10.817  -2.852  44.917  0.00  0.00    -0.275 OA
ENDBRANCH  29  30
ENDBRANCH  28  29
ENDBRANCH  19  28
ENDBRANCH   2  19
TORSDOF 11
REMARK  Name = ../refined-set-2016/3pcg/3pcg_pocket.pdb
REMARK  142 active torsions:
REMARK  status: ('A' for Active; 'I' for Inactive)
REMARK    1  A    between atoms: _1  and  _3
REMARK    2  A    between atoms: _3  and  _4
REMARK    3  A    between atoms: _3  and  _6
REMARK    4  A    between atoms: _6  and  _7
REMARK    5  A    between atoms: _7  and  _8
REMARK    6  A    between atoms: _13  and  _15
REMARK    7  A    between atoms: _15  and  _16
REMARK    8  A    between atoms: _15  and  _18
REMARK    9  A    between atoms: _18  and  _19
REMARK   10  A    between atoms: _22  and  _24
REMARK   11  A    between atoms: _24  and  _25
REMARK   12  A    between atoms: _28  and  _30
REMARK   13  A    between atoms: _30  and  _31
REMARK   14  A    between atoms: _34  and  _35
REMARK   15  A    between atoms: _40  and  _42
REMARK   16  A    between atoms: _42  and  _43
REMARK   17  A    between atoms: _42  and  _45
REMARK   18  A    between atoms: _45  and  _46
REMARK   19  A    between atoms: _51  and  _52
REMARK   20  A    between atoms: _54  and  _56
REMARK   21  A    between atoms: _56  and  _57
REMARK   22  A    between atoms: _56  and  _59
REMARK   23  A    between atoms: _62  and  _64
REMARK   24  A    between atoms: _64  and  _65
REMARK   25  A    between atoms: _64  and  _67
REMARK   26  A    between atoms: _67  and  _68
REMARK   27  A    between atoms: _71  and  _73
REMARK   28  A    between atoms: _73  and  _74
REMARK   29  A    between atoms: _77  and  _79
REMARK   30  A    between atoms: _79  and  _80
REMARK   31  A    between atoms: _79  and  _82
REMARK   32  A    between atoms: _82  and  _83
REMARK   33  A    between atoms: _83  and  _84
REMARK   34  A    between atoms: _84  and  _85
REMARK   35  A    between atoms: _94  and  _96
REMARK   36  A    between atoms: _96  and  _97
REMARK   37  A    between atoms: _99  and  _101
REMARK   38  A    between atoms: _101  and  _102
REMARK   39  A    between atoms: _101  and  _104
REMARK   40  A    between atoms: _104  and  _105
REMARK   41  A    between atoms: _108  and  _110
REMARK   42  A    between atoms: _110  and  _111
REMARK   43  A    between atoms: _110  and  _113
REMARK   44  A    between atoms: _113  and  _114
REMARK   45  A    between atoms: _119  and  _121
REMARK   46  A    between atoms: _121  and  _122
REMARK   47  A    between atoms: _121  and  _124
REMARK   48  A    between atoms: _124  and  _125
REMARK   49  A    between atoms: _130  and  _131
REMARK   50  A    between atoms: _133  and  _135
REMARK   51  A    between atoms: _135  and  _136
REMARK   52  A    between atoms: _135  and  _138
REMARK   53  A    between atoms: _138  and  _139
REMARK   54  A    between atoms: _139  and  _140
REMARK   55  A    between atoms: _140  and  _141
REMARK   56  A    between atoms: _141  and  _142
REMARK   57  A    between atoms: _146  and  _148
REMARK   58  A    between atoms: _148  and  _149
REMARK   59  A    between atoms: _148  and  _151
REMARK   60  A    between atoms: _151  and  _152
REMARK   61  A    between atoms: _155  and  _157
REMARK   62  A    between atoms: _157  and  _158
REMARK   63  A    between atoms: _157  and  _160
REMARK   64  A    between atoms: _160  and  _161
REMARK   65  A    between atoms: _163  and  _165
REMARK   66  A    between atoms: _165  and  _166
REMARK   67  A    between atoms: _165  and  _168
REMARK   68  A    between atoms: _168  and  _169
REMARK   69  A    between atoms: _169  and  _170
REMARK   70  A    between atoms: _170  and  _171
REMARK   71  A    between atoms: _180  and  _182
REMARK   72  A    between atoms: _182  and  _183
REMARK   73  A    between atoms: _182  and  _185
REMARK   74  A    between atoms: _185  and  _186
REMARK   75  A    between atoms: _196  and  _198
REMARK   76  A    between atoms: _198  and  _199
REMARK   77  A    between atoms: _198  and  _201
REMARK   78  A    between atoms: _201  and  _202
REMARK   79  A    between atoms: _202  and  _203
REMARK   80  A    between atoms: _208  and  _210
REMARK   81  A    between atoms: _210  and  _211
REMARK   82  A    between atoms: _214  and  _216
REMARK   83  A    between atoms: _216  and  _217
REMARK   84  A    between atoms: _216  and  _219
REMARK   85  A    between atoms: _219  and  _220
REMARK   86  A    between atoms: _228  and  _230
REMARK   87  A    between atoms: _230  and  _231
REMARK   88  A    between atoms: _230  and  _233
REMARK   89  A    between atoms: _233  and  _234
REMARK   90  A    between atoms: _237  and  _239
REMARK   91  A    between atoms: _239  and  _240
REMARK   92  A    between atoms: _239  and  _242
REMARK   93  A    between atoms: _242  and  _243
REMARK   94  A    between atoms: _248  and  _249
REMARK   95  A    between atoms: _252  and  _253
REMARK   96  A    between atoms: _258  and  _260
REMARK   97  A    between atoms: _260  and  _261
REMARK   98  A    between atoms: _260  and  _263
REMARK   99  A    between atoms: _263  and  _264
REMARK  100  A    between atoms: _274  and  _276
REMARK  101  A    between atoms: _276  and  _277
REMARK  102  A    between atoms: _276  and  _279
REMARK  103  A    between atoms: _279  and  _280
REMARK  104  A    between atoms: _280  and  _281
REMARK  105  A    between atoms: _281  and  _282
REMARK  106  A    between atoms: _291  and  _293
REMARK  107  A    between atoms: _293  and  _294
REMARK  108  A    between atoms: _293  and  _296
REMARK  109  A    between atoms: _296  and  _297
REMARK  110  A    between atoms: _302  and  _304
REMARK  111  A    between atoms: _304  and  _305
REMARK  112  A    between atoms: _304  and  _307
REMARK  113  A    between atoms: _307  and  _308
REMARK  114  A    between atoms: _308  and  _309
REMARK  115  A    between atoms: _309  and  _310
REMARK  116  A    between atoms: _320  and  _321
REMARK  117  A    between atoms: _326  and  _328
REMARK  118  A    between atoms: _339  and  _342
REMARK  119  A    between atoms: _342  and  _343
REMARK  120  A    between atoms: _348  and  _349
REMARK  121  A    between atoms: _357  and  _359
REMARK  122  A    between atoms: _359  and  _360
REMARK  123  A    between atoms: _359  and  _362
REMARK  124  A    between atoms: _362  and  _363
REMARK  125  A    between atoms: _363  and  _364
REMARK  126  A    between atoms: _369  and  _371
REMARK  127  A    between atoms: _371  and  _372
REMARK  128  A    between atoms: _371  and  _374
REMARK  129  A    between atoms: _374  and  _375
REMARK  130  A    between atoms: _380  and  _381
REMARK  131  A    between atoms: _383  and  _385
REMARK  132  A    between atoms: _385  and  _386
REMARK  133  A    between atoms: _385  and  _388
REMARK  134  A    between atoms: _390  and  _392
REMARK  135  A    between atoms: _392  and  _393
REMARK  136  A    between atoms: _392  and  _395
REMARK  137  A    between atoms: _395  and  _396
REMARK  138  A    between atoms: _399  and  _401
REMARK  139  A    between atoms: _401  and  _402
REMARK  140  A    between atoms: _401  and  _404
REMARK  141  A    between atoms: _404  and  _405
REMARK  142  A    between atoms: _405  and  _406
REMARK                            x       y       z     vdW  Elec       q    Type
REMARK                         _______ _______ _______ _____ _____    ______ ____
ROOT
ATOM      1  CG  TYR A   1      12.281   6.638  47.673  0.00  0.00    -0.020 A 
ATOM      2  CD2 TYR A   1      13.000   5.489  47.296  0.00  0.00    -0.001 A 
ATOM      3  CE2 TYR A   1      13.159   5.165  45.928  0.00  0.00    +0.042 A 
ATOM      4  CZ  TYR A   1      12.639   6.011  44.983  0.00  0.00    +0.196 A 
ATOM      5  CE1 TYR A   1      11.929   7.161  45.324  0.00  0.00    +0.042 A 
ATOM      6  OH  TYR A   1      12.757   5.755  43.652  0.00  0.00    -0.287 OA
ATOM      7  CD1 TYR A   1      11.763   7.470  46.699  0.00  0.00    -0.001 A 
ENDROOT
BRANCH   1   8
ATOM      8  CB  TYR A   1      12.148   7.003  49.133  0.00  0.00    +0.051 C 
BRANCH   8   9
ATOM      9  CA  TYR A   1      11.027   6.338  49.914  0.00  0.00    +0.137 C 
BRANCH   9  10
ATOM     10  N   TYR A   1       9.695   6.971  49.690  0.00  0.00    -0.239 NA
ATOM     11  H   TYR A   1       9.623   8.003  49.583  0.00  0.00    +0.142 HD
ENDBRANCH   9  10
BRANCH   9  12
ATOM     12  C   TYR A   1      11.334   6.476  51.426  0.00  0.00    +0.224 C 
ATOM     13  O   TYR A   1      10.890   7.453  52.051  0.00  0.00    -0.287 OA
ENDBRANCH   9  12
ENDBRANCH   8   9
ENDBRANCH   1   8
TORSDOF 4
REMARK  Name = ../refined-set-2016/3pcg/3pcg_pocket.pdb
REMARK  142 active torsions:
REMARK  status: ('A' for Active; 'I' for Inactive)
REMARK    1  A    between atoms: _1  and  _3
REMARK    2  A    between atoms: _3  and  _4
REMARK    3  A    between atoms: _3  and  _6
REMARK    4  A    between atoms: _6  and  _7
REMARK    5  A    between atoms: _7  and  _8
REMARK    6  A    between atoms: _13  and  _15
REMARK    7  A    between atoms: _15  and  _16
REMARK    8  A    between atoms: _15  and  _18
REMARK    9  A    between atoms: _18  and  _19
REMARK   10  A    between atoms: _22  and  _24
REMARK   11  A    between atoms: _24  and  _25
REMARK   12  A    between atoms: _28  and  _30
REMARK   13  A    between atoms: _30  and  _31
REMARK   14  A    between atoms: _34  and  _35
REMARK   15  A    between atoms: _40  and  _42
REMARK   16  A    between atoms: _42  and  _43
REMARK   17  A    between atoms: _42  and  _45
REMARK   18  A    between atoms: _45  and  _46
REMARK   19  A    between atoms: _51  and  _52
REMARK   20  A    between atoms: _54  and  _56
REMARK   21  A    between atoms: _56  and  _57
REMARK   22  A    between atoms: _56  and  _59
REMARK   23  A    between atoms: _62  and  _64
REMARK   24  A    between atoms: _64  and  _65
REMARK   25  A    between atoms: _64  and  _67
REMARK   26  A    between atoms: _67  and  _68
REMARK   27  A    between atoms: _71  and  _73
REMARK   28  A    between atoms: _73  and  _74
REMARK   29  A    between atoms: _77  and  _79
REMARK   30  A    between atoms: _79  and  _80
REMARK   31  A    between atoms: _79  and  _82
REMARK   32  A    between atoms: _82  and  _83
REMARK   33  A    between atoms: _83  and  _84
REMARK   34  A    between atoms: _84  and  _85
REMARK   35  A    between atoms: _94  and  _96
REMARK   36  A    between atoms: _96  and  _97
REMARK   37  A    between atoms: _99  and  _101
REMARK   38  A    between atoms: _101  and  _102
REMARK   39  A    between atoms: _101  and  _104
REMARK   40  A    between atoms: _104  and  _105
REMARK   41  A    between atoms: _108  and  _110
REMARK   42  A    between atoms: _110  and  _111
REMARK   43  A    between atoms: _110  and  _113
REMARK   44  A    between atoms: _113  and  _114
REMARK   45  A    between atoms: _119  and  _121
REMARK   46  A    between atoms: _121  and  _122
REMARK   47  A    between atoms: _121  and  _124
REMARK   48  A    between atoms: _124  and  _125
REMARK   49  A    between atoms: _130  and  _131
REMARK   50  A    between atoms: _133  and  _135
REMARK   51  A    between atoms: _135  and  _136
REMARK   52  A    between atoms: _135  and  _138
REMARK   53  A    between atoms: _138  and  _139
REMARK   54  A    between atoms: _139  and  _140
REMARK   55  A    between atoms: _140  and  _141
REMARK   56  A    between atoms: _141  and  _142
REMARK   57  A    between atoms: _146  and  _148
REMARK   58  A    between atoms: _148  and  _149
REMARK   59  A    between atoms: _148  and  _151
REMARK   60  A    between atoms: _151  and  _152
REMARK   61  A    between atoms: _155  and  _157
REMARK   62  A    between atoms: _157  and  _158
REMARK   63  A    between atoms: _157  and  _160
REMARK   64  A    between atoms: _160  and  _161
REMARK   65  A    between atoms: _163  and  _165
REMARK   66  A    between atoms: _165  and  _166
REMARK   67  A    between atoms: _165  and  _168
REMARK   68  A    between atoms: _168  and  _169
REMARK   69  A    between atoms: _169  and  _170
REMARK   70  A    between atoms: _170  and  _171
REMARK   71  A    between atoms: _180  and  _182
REMARK   72  A    between atoms: _182  and  _183
REMARK   73  A    between atoms: _182  and  _185
REMARK   74  A    between atoms: _185  and  _186
REMARK   75  A    between atoms: _196  and  _198
REMARK   76  A    between atoms: _198  and  _199
REMARK   77  A    between atoms: _198  and  _201
REMARK   78  A    between atoms: _201  and  _202
REMARK   79  A    between atoms: _202  and  _203
REMARK   80  A    between atoms: _208  and  _210
REMARK   81  A    between atoms: _210  and  _211
REMARK   82  A    between atoms: _214  and  _216
REMARK   83  A    between atoms: _216  and  _217
REMARK   84  A    between atoms: _216  and  _219
REMARK   85  A    between atoms: _219  and  _220
REMARK   86  A    between atoms: _228  and  _230
REMARK   87  A    between atoms: _230  and  _231
REMARK   88  A    between atoms: _230  and  _233
REMARK   89  A    between atoms: _233  and  _234
REMARK   90  A    between atoms: _237  and  _239
REMARK   91  A    between atoms: _239  and  _240
REMARK   92  A    between atoms: _239  and  _242
REMARK   93  A    between atoms: _242  and  _243
REMARK   94  A    between atoms: _248  and  _249
REMARK   95  A    between atoms: _252  and  _253
REMARK   96  A    between atoms: _258  and  _260
REMARK   97  A    between atoms: _260  and  _261
REMARK   98  A    between atoms: _260  and  _263
REMARK   99  A    between atoms: _263  and  _264
REMARK  100  A    between atoms: _274  and  _276
REMARK  101  A    between atoms: _276  and  _277
REMARK  102  A    between atoms: _276  and  _279
REMARK  103  A    between atoms: _279  and  _280
REMARK  104  A    between atoms: _280  and  _281
REMARK  105  A    between atoms: _281  and  _282
REMARK  106  A    between atoms: _291  and  _293
REMARK  107  A    between atoms: _293  and  _294
REMARK  108  A    between atoms: _293  and  _296
REMARK  109  A    between atoms: _296  and  _297
REMARK  110  A    between atoms: _302  and  _304
REMARK  111  A    between atoms: _304  and  _305
REMARK  112  A    between atoms: _304  and  _307
REMARK  113  A    between atoms: _307  and  _308
REMARK  114  A    between atoms: _308  and  _309
REMARK  115  A    between atoms: _309  and  _310
REMARK  116  A    between atoms: _320  and  _321
REMARK  117  A    between atoms: _326  and  _328
REMARK  118  A    between atoms: _339  and  _342
REMARK  119  A    between atoms: _342  and  _343
REMARK  120  A    between atoms: _348  and  _349
REMARK  121  A    between atoms: _357  and  _359
REMARK  122  A    between atoms: _359  and  _360
REMARK  123  A    between atoms: _359  and  _362
REMARK  124  A    between atoms: _362  and  _363
REMARK  125  A    between atoms: _363  and  _364
REMARK  126  A    between atoms: _369  and  _371
REMARK  127  A    between atoms: _371  and  _372
REMARK  128  A    between atoms: _371  and  _374
REMARK  129  A    between atoms: _374  and  _375
REMARK  130  A    between atoms: _380  and  _381
REMARK  131  A    between atoms: _383  and  _385
REMARK  132  A    between atoms: _385  and  _386
REMARK  133  A    between atoms: _385  and  _388
REMARK  134  A    between atoms: _390  and  _392
REMARK  135  A    between atoms: _392  and  _393
REMARK  136  A    between atoms: _392  and  _395
REMARK  137  A    between atoms: _395  and  _396
REMARK  138  A    between atoms: _399  and  _401
REMARK  139  A    between atoms: _401  and  _402
REMARK  140  A    between atoms: _401  and  _404
REMARK  141  A    between atoms: _404  and  _405
REMARK  142  A    between atoms: _405  and  _406
REMARK                            x       y       z     vdW  Elec       q    Type
REMARK                         _______ _______ _______ _____ _____    ______ ____
ROOT
ATOM      1  H   UNK A   1      13.226   6.508  43.213  0.00  0.00    +0.000 HD
ATOM      2 FE   UNK A   1      13.215   6.781  42.278  0.00  0.00    +0.000 Fe
ATOM      3  N   UNK A   1      15.049   5.448  41.913  0.00  0.00    +0.000 N 
ATOM      4  C   UNK A   1      15.296   4.142  42.303  0.00  0.00    +0.000 A 
ATOM      5  C   UNK A   1      16.416   3.747  41.688  0.00  0.00    +0.000 A 
ATOM      6  C   UNK A   1      17.137   2.424  41.748  0.00  0.00    +0.000 C 
ATOM      7  C   UNK A   1      16.527   1.405  40.731  0.00  0.00    +0.000 C 
ATOM      8  N   UNK A   3      15.132   1.014  41.079  0.00  0.00    +0.000 N 
ATOM      9  H   UNK A   3      14.777   1.179  42.043  0.00  0.00    +0.000 HD
ATOM     10  C   ILE A   2      14.351   0.468  40.190  0.00  0.00    +0.000 C 
ATOM     11  CA  ILE A   2      12.919   0.064  40.677  0.00  0.00    +0.000 C 
ATOM     12  N   ILE A   2      12.002   0.626  39.625  0.00  0.00    +0.000 N 
ATOM     13  C   UNK A   1      11.138   1.572  39.952  0.00  0.00    +0.000 C 
ATOM     14  O   UNK A   1      10.887   1.952  41.109  0.00  0.00    +0.000 OA
ATOM     15  C   UNK A   1      10.348   2.131  38.783  0.00  0.00    +0.000 C 
ATOM     16  C   UNK A   1      11.225   3.252  38.097  0.00  0.00    +0.000 C 
ATOM     17  C   UNK A   1      11.512   4.352  39.080  0.00  0.00    +0.000 A 
ATOM     18  C   UNK A   1      12.527   4.460  39.966  0.00  0.00    +0.000 A 
ATOM     19  N   UNK A   1      10.736   5.456  39.257  0.00  0.00    +0.000 NA
ATOM     20  C   UNK A   1      11.231   6.203  40.244  0.00  0.00    +0.000 A 
ATOM     21  H   ILE A   2      12.047   0.273  38.648  0.00  0.00    +0.000 HD
ATOM     22  O   ILE A   2      14.653   0.222  38.975  0.00  0.00    +0.000 OA
ATOM     23  N   UNK A   1      16.837   4.809  40.887  0.00  0.00    +0.000 NA
ATOM     24  C   UNK A   1      15.981   5.802  41.051  0.00  0.00    +0.000 A 
ATOM     25  N   UNK A   1      12.315   5.619  40.686  0.00  0.00    +0.000 N 
ENDROOT
BRANCH  11  26
ATOM     26  CB  ILE A   2      12.803  -1.474  40.785  0.00  0.00    +0.000 C 
ATOM     27  CG2 ILE A   2      13.933  -2.082  41.707  0.00  0.00    +0.000 C 
BRANCH  26  28
ATOM     28  CG1 ILE A   2      11.404  -1.908  41.316  0.00  0.00    +0.000 C 
ATOM     29  CD1 ILE A   2      11.218  -3.457  41.317  0.00  0.00    +0.000 C 
ENDBRANCH  26  28
ENDBRANCH  11  26
BRANCH  15  30
ATOM     30  N   UNK A   1       9.058   2.757  39.256  0.00  0.00    +0.000 NA
ATOM     31  H   UNK A   1       8.940   3.084  40.236  0.00  0.00    +0.000 HD
ENDBRANCH  15  30
BRANCH   7  32
ATOM     32  C   UNK A   1      17.393   0.149  40.769  0.00  0.00    +0.000 C 
ATOM     33  O   UNK A   3      17.262  -0.618  41.782  0.00  0.00    +0.000 OA
ENDBRANCH   7  32
TORSDOF 4
REMARK  Name = ../refined-set-2016/3pcg/3pcg_pocket.pdb
REMARK  142 active torsions:
REMARK  status: ('A' for Active; 'I' for Inactive)
REMARK    1  A    between atoms: _1  and  _3
REMARK    2  A    between atoms: _3  and  _4
REMARK    3  A    between atoms: _3  and  _6
REMARK    4  A    between atoms: _6  and  _7
REMARK    5  A    between atoms: _7  and  _8
REMARK    6  A    between atoms: _13  and  _15
REMARK    7  A    between atoms: _15  and  _16
REMARK    8  A    between atoms: _15  and  _18
REMARK    9  A    between atoms: _18  and  _19
REMARK   10  A    between atoms: _22  and  _24
REMARK   11  A    between atoms: _24  and  _25
REMARK   12  A    between atoms: _28  and  _30
REMARK   13  A    between atoms: _30  and  _31
REMARK   14  A    between atoms: _34  and  _35
REMARK   15  A    between atoms: _40  and  _42
REMARK   16  A    between atoms: _42  and  _43
REMARK   17  A    between atoms: _42  and  _45
REMARK   18  A    between atoms: _45  and  _46
REMARK   19  A    between atoms: _51  and  _52
REMARK   20  A    between atoms: _54  and  _56
REMARK   21  A    between atoms: _56  and  _57
REMARK   22  A    between atoms: _56  and  _59
REMARK   23  A    between atoms: _62  and  _64
REMARK   24  A    between atoms: _64  and  _65
REMARK   25  A    between atoms: _64  and  _67
REMARK   26  A    between atoms: _67  and  _68
REMARK   27  A    between atoms: _71  and  _73
REMARK   28  A    between atoms: _73  and  _74
REMARK   29  A    between atoms: _77  and  _79
REMARK   30  A    between atoms: _79  and  _80
REMARK   31  A    between atoms: _79  and  _82
REMARK   32  A    between atoms: _82  and  _83
REMARK   33  A    between atoms: _83  and  _84
REMARK   34  A    between atoms: _84  and  _85
REMARK   35  A    between atoms: _94  and  _96
REMARK   36  A    between atoms: _96  and  _97
REMARK   37  A    between atoms: _99  and  _101
REMARK   38  A    between atoms: _101  and  _102
REMARK   39  A    between atoms: _101  and  _104
REMARK   40  A    between atoms: _104  and  _105
REMARK   41  A    between atoms: _108  and  _110
REMARK   42  A    between atoms: _110  and  _111
REMARK   43  A    between atoms: _110  and  _113
REMARK   44  A    between atoms: _113  and  _114
REMARK   45  A    between atoms: _119  and  _121
REMARK   46  A    between atoms: _121  and  _122
REMARK   47  A    between atoms: _121  and  _124
REMARK   48  A    between atoms: _124  and  _125
REMARK   49  A    between atoms: _130  and  _131
REMARK   50  A    between atoms: _133  and  _135
REMARK   51  A    between atoms: _135  and  _136
REMARK   52  A    between atoms: _135  and  _138
REMARK   53  A    between atoms: _138  and  _139
REMARK   54  A    between atoms: _139  and  _140
REMARK   55  A    between atoms: _140  and  _141
REMARK   56  A    between atoms: _141  and  _142
REMARK   57  A    between atoms: _146  and  _148
REMARK   58  A    between atoms: _148  and  _149
REMARK   59  A    between atoms: _148  and  _151
REMARK   60  A    between atoms: _151  and  _152
REMARK   61  A    between atoms: _155  and  _157
REMARK   62  A    between atoms: _157  and  _158
REMARK   63  A    between atoms: _157  and  _160
REMARK   64  A    between atoms: _160  and  _161
REMARK   65  A    between atoms: _163  and  _165
REMARK   66  A    between atoms: _165  and  _166
REMARK   67  A    between atoms: _165  and  _168
REMARK   68  A    between atoms: _168  and  _169
REMARK   69  A    between atoms: _169  and  _170
REMARK   70  A    between atoms: _170  and  _171
REMARK   71  A    between atoms: _180  and  _182
REMARK   72  A    between atoms: _182  and  _183
REMARK   73  A    between atoms: _182  and  _185
REMARK   74  A    between atoms: _185  and  _186
REMARK   75  A    between atoms: _196  and  _198
REMARK   76  A    between atoms: _198  and  _199
REMARK   77  A    between atoms: _198  and  _201
REMARK   78  A    between atoms: _201  and  _202
REMARK   79  A    between atoms: _202  and  _203
REMARK   80  A    between atoms: _208  and  _210
REMARK   81  A    between atoms: _210  and  _211
REMARK   82  A    between atoms: _214  and  _216
REMARK   83  A    between atoms: _216  and  _217
REMARK   84  A    between atoms: _216  and  _219
REMARK   85  A    between atoms: _219  and  _220
REMARK   86  A    between atoms: _228  and  _230
REMARK   87  A    between atoms: _230  and  _231
REMARK   88  A    between atoms: _230  and  _233
REMARK   89  A    between atoms: _233  and  _234
REMARK   90  A    between atoms: _237  and  _239
REMARK   91  A    between atoms: _239  and  _240
REMARK   92  A    between atoms: _239  and  _242
REMARK   93  A    between atoms: _242  and  _243
REMARK   94  A    between atoms: _248  and  _249
REMARK   95  A    between atoms: _252  and  _253
REMARK   96  A    between atoms: _258  and  _260
REMARK   97  A    between atoms: _260  and  _261
REMARK   98  A    between atoms: _260  and  _263
REMARK   99  A    between atoms: _263  and  _264
REMARK  100  A    between atoms: _274  and  _276
REMARK  101  A    between atoms: _276  and  _277
REMARK  102  A    between atoms: _276  and  _279
REMARK  103  A    between atoms: _279  and  _280
REMARK  104  A    between atoms: _280  and  _281
REMARK  105  A    between atoms: _281  and  _282
REMARK  106  A    between atoms: _291  and  _293
REMARK  107  A    between atoms: _293  and  _294
REMARK  108  A    between atoms: _293  and  _296
REMARK  109  A    between atoms: _296  and  _297
REMARK  110  A    between atoms: _302  and  _304
REMARK  111  A    between atoms: _304  and  _305
REMARK  112  A    between atoms: _304  and  _307
REMARK  113  A    between atoms: _307  and  _308
REMARK  114  A    between atoms: _308  and  _309
REMARK  115  A    between atoms: _309  and  _310
REMARK  116  A    between atoms: _320  and  _321
REMARK  117  A    between atoms: _326  and  _328
REMARK  118  A    between atoms: _339  and  _342
REMARK  119  A    between atoms: _342  and  _343
REMARK  120  A    between atoms: _348  and  _349
REMARK  121  A    between atoms: _357  and  _359
REMARK  122  A    between atoms: _359  and  _360
REMARK  123  A    between atoms: _359  and  _362
REMARK  124  A    between atoms: _362  and  _363
REMARK  125  A    between atoms: _363  and  _364
REMARK  126  A    between atoms: _369  and  _371
REMARK  127  A    between atoms: _371  and  _372
REMARK  128  A    between atoms: _371  and  _374
REMARK  129  A    between atoms: _374  and  _375
REMARK  130  A    between atoms: _380  and  _381
REMARK  131  A    between atoms: _383  and  _385
REMARK  132  A    between atoms: _385  and  _386
REMARK  133  A    between atoms: _385  and  _388
REMARK  134  A    between atoms: _390  and  _392
REMARK  135  A    between atoms: _392  and  _393
REMARK  136  A    between atoms: _392  and  _395
REMARK  137  A    between atoms: _395  and  _396
REMARK  138  A    between atoms: _399  and  _401
REMARK  139  A    between atoms: _401  and  _402
REMARK  140  A    between atoms: _401  and  _404
REMARK  141  A    between atoms: _404  and  _405
REMARK  142  A    between atoms: _405  and  _406
REMARK                            x       y       z     vdW  Elec       q    Type
REMARK                         _______ _______ _______ _____ _____    ______ ____
ROOT
ATOM      1  CA  ASP A   1      11.597  12.278  51.163  0.00  0.00    +0.144 C 
ENDROOT
BRANCH   1   2
ATOM      2  N   ASP A   1      12.899  12.457  51.879  0.00  0.00    -0.239 NA
ATOM      3  H   ASP A   1      13.237  11.729  52.540  0.00  0.00    +0.142 HD
ENDBRANCH   1   2
BRANCH   1   4
ATOM      4  C   ASP A   1      10.459  12.763  52.047  0.00  0.00    +0.225 C 
ATOM      5  O   ASP A   1      10.079  12.147  53.041  0.00  0.00    -0.287 OA
ENDBRANCH   1   4
BRANCH   1   6
ATOM      6  CB  ASP A   1      11.450  10.899  50.537  0.00  0.00    +0.139 C 
BRANCH   6   7
ATOM      7  CG  ASP A   1      10.200  10.762  49.693  0.00  0.00    +0.367 C 
ATOM      8  OD2 ASP A   1       9.469  11.763  49.499  0.00  0.00    -0.246 OA
ATOM      9  OD1 ASP A   1       9.948   9.641  49.205  0.00  0.00    -0.246 OA
ENDBRANCH   6   7
ENDBRANCH   1   6
TORSDOF 4
REMARK  Name = ../refined-set-2016/3pcg/3pcg_pocket.pdb
REMARK  142 active torsions:
REMARK  status: ('A' for Active; 'I' for Inactive)
REMARK    1  A    between atoms: _1  and  _3
REMARK    2  A    between atoms: _3  and  _4
REMARK    3  A    between atoms: _3  and  _6
REMARK    4  A    between atoms: _6  and  _7
REMARK    5  A    between atoms: _7  and  _8
REMARK    6  A    between atoms: _13  and  _15
REMARK    7  A    between atoms: _15  and  _16
REMARK    8  A    between atoms: _15  and  _18
REMARK    9  A    between atoms: _18  and  _19
REMARK   10  A    between atoms: _22  and  _24
REMARK   11  A    between atoms: _24  and  _25
REMARK   12  A    between atoms: _28  and  _30
REMARK   13  A    between atoms: _30  and  _31
REMARK   14  A    between atoms: _34  and  _35
REMARK   15  A    between atoms: _40  and  _42
REMARK   16  A    between atoms: _42  and  _43
REMARK   17  A    between atoms: _42  and  _45
REMARK   18  A    between atoms: _45  and  _46
REMARK   19  A    between atoms: _51  and  _52
REMARK   20  A    between atoms: _54  and  _56
REMARK   21  A    between atoms: _56  and  _57
REMARK   22  A    between atoms: _56  and  _59
REMARK   23  A    between atoms: _62  and  _64
REMARK   24  A    between atoms: _64  and  _65
REMARK   25  A    between atoms: _64  and  _67
REMARK   26  A    between atoms: _67  and  _68
REMARK   27  A    between atoms: _71  and  _73
REMARK   28  A    between atoms: _73  and  _74
REMARK   29  A    between atoms: _77  and  _79
REMARK   30  A    between atoms: _79  and  _80
REMARK   31  A    between atoms: _79  and  _82
REMARK   32  A    between atoms: _82  and  _83
REMARK   33  A    between atoms: _83  and  _84
REMARK   34  A    between atoms: _84  and  _85
REMARK   35  A    between atoms: _94  and  _96
REMARK   36  A    between atoms: _96  and  _97
REMARK   37  A    between atoms: _99  and  _101
REMARK   38  A    between atoms: _101  and  _102
REMARK   39  A    between atoms: _101  and  _104
REMARK   40  A    between atoms: _104  and  _105
REMARK   41  A    between atoms: _108  and  _110
REMARK   42  A    between atoms: _110  and  _111
REMARK   43  A    between atoms: _110  and  _113
REMARK   44  A    between atoms: _113  and  _114
REMARK   45  A    between atoms: _119  and  _121
REMARK   46  A    between atoms: _121  and  _122
REMARK   47  A    between atoms: _121  and  _124
REMARK   48  A    between atoms: _124  and  _125
REMARK   49  A    between atoms: _130  and  _131
REMARK   50  A    between atoms: _133  and  _135
REMARK   51  A    between atoms: _135  and  _136
REMARK   52  A    between atoms: _135  and  _138
REMARK   53  A    between atoms: _138  and  _139
REMARK   54  A    between atoms: _139  and  _140
REMARK   55  A    between atoms: _140  and  _141
REMARK   56  A    between atoms: _141  and  _142
REMARK   57  A    between atoms: _146  and  _148
REMARK   58  A    between atoms: _148  and  _149
REMARK   59  A    between atoms: _148  and  _151
REMARK   60  A    between atoms: _151  and  _152
REMARK   61  A    between atoms: _155  and  _157
REMARK   62  A    between atoms: _157  and  _158
REMARK   63  A    between atoms: _157  and  _160
REMARK   64  A    between atoms: _160  and  _161
REMARK   65  A    between atoms: _163  and  _165
REMARK   66  A    between atoms: _165  and  _166
REMARK   67  A    between atoms: _165  and  _168
REMARK   68  A    between atoms: _168  and  _169
REMARK   69  A    between atoms: _169  and  _170
REMARK   70  A    between atoms: _170  and  _171
REMARK   71  A    between atoms: _180  and  _182
REMARK   72  A    between atoms: _182  and  _183
REMARK   73  A    between atoms: _182  and  _185
REMARK   74  A    between atoms: _185  and  _186
REMARK   75  A    between atoms: _196  and  _198
REMARK   76  A    between atoms: _198  and  _199
REMARK   77  A    between atoms: _198  and  _201
REMARK   78  A    between atoms: _201  and  _202
REMARK   79  A    between atoms: _202  and  _203
REMARK   80  A    between atoms: _208  and  _210
REMARK   81  A    between atoms: _210  and  _211
REMARK   82  A    between atoms: _214  and  _216
REMARK   83  A    between atoms: _216  and  _217
REMARK   84  A    between atoms: _216  and  _219
REMARK   85  A    between atoms: _219  and  _220
REMARK   86  A    between atoms: _228  and  _230
REMARK   87  A    between atoms: _230  and  _231
REMARK   88  A    between atoms: _230  and  _233
REMARK   89  A    between atoms: _233  and  _234
REMARK   90  A    between atoms: _237  and  _239
REMARK   91  A    between atoms: _239  and  _240
REMARK   92  A    between atoms: _239  and  _242
REMARK   93  A    between atoms: _242  and  _243
REMARK   94  A    between atoms: _248  and  _249
REMARK   95  A    between atoms: _252  and  _253
REMARK   96  A    between atoms: _258  and  _260
REMARK   97  A    between atoms: _260  and  _261
REMARK   98  A    between atoms: _260  and  _263
REMARK   99  A    between atoms: _263  and  _264
REMARK  100  A    between atoms: _274  and  _276
REMARK  101  A    between atoms: _276  and  _277
REMARK  102  A    between atoms: _276  and  _279
REMARK  103  A    between atoms: _279  and  _280
REMARK  104  A    between atoms: _280  and  _281
REMARK  105  A    between atoms: _281  and  _282
REMARK  106  A    between atoms: _291  and  _293
REMARK  107  A    between atoms: _293  and  _294
REMARK  108  A    between atoms: _293  and  _296
REMARK  109  A    between atoms: _296  and  _297
REMARK  110  A    between atoms: _302  and  _304
REMARK  111  A    between atoms: _304  and  _305
REMARK  112  A    between atoms: _304  and  _307
REMARK  113  A    between atoms: _307  and  _308
REMARK  114  A    between atoms: _308  and  _309
REMARK  115  A    between atoms: _309  and  _310
REMARK  116  A    between atoms: _320  and  _321
REMARK  117  A    between atoms: _326  and  _328
REMARK  118  A    between atoms: _339  and  _342
REMARK  119  A    between atoms: _342  and  _343
REMARK  120  A    between atoms: _348  and  _349
REMARK  121  A    between atoms: _357  and  _359
REMARK  122  A    between atoms: _359  and  _360
REMARK  123  A    between atoms: _359  and  _362
REMARK  124  A    between atoms: _362  and  _363
REMARK  125  A    between atoms: _363  and  _364
REMARK  126  A    between atoms: _369  and  _371
REMARK  127  A    between atoms: _371  and  _372
REMARK  128  A    between atoms: _371  and  _374
REMARK  129  A    between atoms: _374  and  _375
REMARK  130  A    between atoms: _380  and  _381
REMARK  131  A    between atoms: _383  and  _385
REMARK  132  A    between atoms: _385  and  _386
REMARK  133  A    between atoms: _385  and  _388
REMARK  134  A    between atoms: _390  and  _392
REMARK  135  A    between atoms: _392  and  _393
REMARK  136  A    between atoms: _392  and  _395
REMARK  137  A    between atoms: _395  and  _396
REMARK  138  A    between atoms: _399  and  _401
REMARK  139  A    between atoms: _401  and  _402
REMARK  140  A    between atoms: _401  and  _404
REMARK  141  A    between atoms: _404  and  _405
REMARK  142  A    between atoms: _405  and  _406
REMARK                            x       y       z     vdW  Elec       q    Type
REMARK                         _______ _______ _______ _____ _____    ______ ____
ROOT
ATOM      1  CA  TRP A   3       9.174  15.517  41.887  0.00  0.00    +0.153 C 
ENDROOT
BRANCH   1   2
ATOM      2  C   TRP A   3       9.197  16.934  41.367  0.00  0.00    +0.241 C 
ATOM      3  N   ARG A   4      10.058  17.752  41.922  0.00  0.00    -0.297 N 
ATOM      4  H   ARG A   4      10.724  17.396  42.637  0.00  0.00    +0.150 HD
ATOM      5  O   TRP A   3       8.350  17.278  40.482  0.00  0.00    -0.273 OA
BRANCH   3   6
ATOM      6  CA  ARG A   4      10.085  19.180  41.534  0.00  0.00    +0.149 C 
BRANCH   6   7
ATOM      7  C   ARG A   4      10.973  19.365  40.318  0.00  0.00    +0.241 C 
ATOM      8  O   ARG A   4      12.200  19.430  40.497  0.00  0.00    -0.273 OA
ATOM      9  N   ASN A   5      10.404  19.268  39.160  0.00  0.00    -0.298 N 
ATOM     10  H   ASN A   5       9.384  19.065  39.146  0.00  0.00    +0.150 HD
BRANCH   9  11
ATOM     11  CA  ASN A   5      11.086  19.422  37.848  0.00  0.00    +0.146 C 
BRANCH  11  12
ATOM     12  C   ASN A   5      10.214  20.504  37.160  0.00  0.00    +0.227 C 
ATOM     13  O   ASN A   5      10.435  21.681  37.470  0.00  0.00    -0.286 OA
ENDBRANCH  11  12
BRANCH  11  14
ATOM     14  CB  ASN A   5      11.197  18.104  37.122  0.00  0.00    +0.112 C 
BRANCH  14  15
ATOM     15  CG  ASN A   5      12.142  18.254  35.900  0.00  0.00    +0.222 C 
ATOM     16  OD1 ASN A   5      13.299  18.585  36.147  0.00  0.00    -0.275 OA
ATOM     17  ND2 ASN A   5      11.622  18.094  34.695  0.00  0.00    -0.329 N 
ATOM     18 HD21 ASN A   5      10.627  17.810  34.592  0.00  0.00    +0.145 HD
ATOM     19 HD22 ASN A   5      12.208  18.252  33.851  0.00  0.00    +0.145 HD
ENDBRANCH  14  15
ENDBRANCH  11  14
ENDBRANCH   9  11
ENDBRANCH   6   7
BRANCH   6  20
ATOM     20  CB  ARG A   4      10.407  20.064  42.721  0.00  0.00    +0.033 C 
BRANCH  20  21
ATOM     21  CG  ARG A   4       9.607  19.679  43.989  0.00  0.00    +0.045 C 
BRANCH  21  22
ATOM     22  CD  ARG A   4       9.716  20.692  45.092  0.00  0.00    +0.174 C 
BRANCH  22  23
ATOM     23  NE  ARG A   4       8.508  21.504  45.134  0.00  0.00    -0.265 N 
ATOM     24  CZ  ARG A   4       7.535  21.483  46.040  0.00  0.00    +0.342 C 
ATOM     25  NH2 ARG A   4       7.558  20.733  47.139  0.00  0.00    -0.292 N 
ATOM     26 HH21 ARG A   4       6.762  20.765  47.807  0.00  0.00    +0.255 HD
ATOM     27 HH22 ARG A   4       8.372  20.115  47.330  0.00  0.00    +0.255 HD
ATOM     28  NH1 ARG A   4       6.384  22.157  45.733  0.00  0.00    -0.292 N 
ATOM     29 HH11 ARG A   4       5.593  22.171  46.409  0.00  0.00    +0.255 HD
ATOM     30 HH12 ARG A   4       6.300  22.656  44.824  0.00  0.00    +0.255 HD
ATOM     31  HE  ARG A   4       8.392  22.186  44.358  0.00  0.00    +0.259 HD
ENDBRANCH  22  23
ENDBRANCH  21  22
ENDBRANCH  20  21
ENDBRANCH   6  20
ENDBRANCH   3   6
ENDBRANCH   1   2
BRANCH   1  34
ATOM     32  C   PRO A   2       7.243  14.101  42.399  0.00  0.00    +0.241 C 
ATOM     33  O   PRO A   2       7.823  13.614  43.404  0.00  0.00    -0.273 OA
ATOM     34  N   TRP A   3       7.790  15.006  41.609  0.00  0.00    -0.297 N 
ATOM     35  H   TRP A   3       7.260  15.367  40.790  0.00  0.00    +0.150 HD
BRANCH  32  41
ATOM     36  C   TYR A   1       6.148  11.226  41.923  0.00  0.00    +0.242 C 
ATOM     37  N   PRO A   2       5.654  12.252  42.556  0.00  0.00    -0.272 N 
ATOM     38  CD  PRO A   2       4.800  12.226  43.782  0.00  0.00    +0.094 C 
ATOM     39  CG  PRO A   2       4.614  13.703  44.101  0.00  0.00    +0.024 C 
ATOM     40  CB  PRO A   2       4.716  14.386  42.751  0.00  0.00    +0.031 C 
ATOM     41  CA  PRO A   2       5.845  13.640  42.035  0.00  0.00    +0.152 C 
ATOM     42  O   TYR A   1       6.831  11.211  40.926  0.00  0.00    -0.273 OA
BRANCH  36  43
ATOM     43  CA  TYR A   1       5.814   9.911  42.632  0.00  0.00    +0.149 C 
BRANCH  43  44
ATOM     44  N   TYR A   1       5.645   8.833  41.628  0.00  0.00    -0.238 NA
ATOM     45  H   TYR A   1       6.039   8.931  40.671  0.00  0.00    +0.142 HD
ENDBRANCH  43  44
BRANCH  43  46
ATOM     46  CB  TYR A   1       6.793   9.584  43.734  0.00  0.00    +0.053 C 
BRANCH  46  47
ATOM     47  CG  TYR A   1       8.174   9.210  43.281  0.00  0.00    -0.020 A 
ATOM     48  CD2 TYR A   1       8.541   7.874  43.154  0.00  0.00    -0.001 A 
ATOM     49  CE2 TYR A   1       9.827   7.498  42.746  0.00  0.00    +0.036 A 
ATOM     50  CZ  TYR A   1      10.752   8.529  42.479  0.00  0.00    +0.134 A 
ATOM     51  CE1 TYR A   1      10.402   9.864  42.607  0.00  0.00    +0.036 A 
ATOM     52  CD1 TYR A   1       9.110  10.211  42.977  0.00  0.00    -0.001 A 
BRANCH  50  53
ATOM     53  OH  TYR A   1      12.023   8.174  42.112  0.00  0.00    -0.506 OA
ATOM     54  HH  TYR A   1      12.436   7.638  42.834  0.00  0.00    +0.292 HD
ENDBRANCH  50  53
ENDBRANCH  46  47
ENDBRANCH  43  46
ENDBRANCH  36  43
ENDBRANCH  32  41
ENDBRANCH   1  34
BRANCH   1  55
ATOM     55  CB  TRP A   3      10.259  14.564  41.441  0.00  0.00    +0.057 C 
BRANCH  55  56
ATOM     56  CG  TRP A   3      10.293  14.338  39.957  0.00  0.00    -0.002 A 
ATOM     57  CD1 TRP A   3       9.287  13.777  39.201  0.00  0.00    +0.068 A 
ATOM     58  NE1 TRP A   3       9.674  13.735  37.872  0.00  0.00    -0.352 N 
ATOM     59  CE2 TRP A   3      10.914  14.296  37.755  0.00  0.00    +0.056 A 
ATOM     60  CZ2 TRP A   3      11.729  14.399  36.637  0.00  0.00    +0.017 A 
ATOM     61  CH2 TRP A   3      12.994  14.985  36.814  0.00  0.00    +0.001 A 
ATOM     62  CZ3 TRP A   3      13.409  15.397  38.069  0.00  0.00    +0.000 A 
ATOM     63  CE3 TRP A   3      12.584  15.252  39.210  0.00  0.00    +0.001 A 
ATOM     64  HE1 TRP A   3       9.112  13.341  37.091  0.00  0.00    +0.166 HD
ATOM     65  CD2 TRP A   3      11.347  14.685  39.047  0.00  0.00    +0.013 A 
ENDBRANCH  55  56
ENDBRANCH   1  55
TORSDOF 20
REMARK  Name = ../refined-set-2016/3pcg/3pcg_pocket.pdb
REMARK  142 active torsions:
REMARK  status: ('A' for Active; 'I' for Inactive)
REMARK    1  A    between atoms: _1  and  _3
REMARK    2  A    between atoms: _3  and  _4
REMARK    3  A    between atoms: _3  and  _6
REMARK    4  A    between atoms: _6  and  _7
REMARK    5  A    between atoms: _7  and  _8
REMARK    6  A    between atoms: _13  and  _15
REMARK    7  A    between atoms: _15  and  _16
REMARK    8  A    between atoms: _15  and  _18
REMARK    9  A    between atoms: _18  and  _19
REMARK   10  A    between atoms: _22  and  _24
REMARK   11  A    between atoms: _24  and  _25
REMARK   12  A    between atoms: _28  and  _30
REMARK   13  A    between atoms: _30  and  _31
REMARK   14  A    between atoms: _34  and  _35
REMARK   15  A    between atoms: _40  and  _42
REMARK   16  A    between atoms: _42  and  _43
REMARK   17  A    between atoms: _42  and  _45
REMARK   18  A    between atoms: _45  and  _46
REMARK   19  A    between atoms: _51  and  _52
REMARK   20  A    between atoms: _54  and  _56
REMARK   21  A    between atoms: _56  and  _57
REMARK   22  A    between atoms: _56  and  _59
REMARK   23  A    between atoms: _62  and  _64
REMARK   24  A    between atoms: _64  and  _65
REMARK   25  A    between atoms: _64  and  _67
REMARK   26  A    between atoms: _67  and  _68
REMARK   27  A    between atoms: _71  and  _73
REMARK   28  A    between atoms: _73  and  _74
REMARK   29  A    between atoms: _77  and  _79
REMARK   30  A    between atoms: _79  and  _80
REMARK   31  A    between atoms: _79  and  _82
REMARK   32  A    between atoms: _82  and  _83
REMARK   33  A    between atoms: _83  and  _84
REMARK   34  A    between atoms: _84  and  _85
REMARK   35  A    between atoms: _94  and  _96
REMARK   36  A    between atoms: _96  and  _97
REMARK   37  A    between atoms: _99  and  _101
REMARK   38  A    between atoms: _101  and  _102
REMARK   39  A    between atoms: _101  and  _104
REMARK   40  A    between atoms: _104  and  _105
REMARK   41  A    between atoms: _108  and  _110
REMARK   42  A    between atoms: _110  and  _111
REMARK   43  A    between atoms: _110  and  _113
REMARK   44  A    between atoms: _113  and  _114
REMARK   45  A    between atoms: _119  and  _121
REMARK   46  A    between atoms: _121  and  _122
REMARK   47  A    between atoms: _121  and  _124
REMARK   48  A    between atoms: _124  and  _125
REMARK   49  A    between atoms: _130  and  _131
REMARK   50  A    between atoms: _133  and  _135
REMARK   51  A    between atoms: _135  and  _136
REMARK   52  A    between atoms: _135  and  _138
REMARK   53  A    between atoms: _138  and  _139
REMARK   54  A    between atoms: _139  and  _140
REMARK   55  A    between atoms: _140  and  _141
REMARK   56  A    between atoms: _141  and  _142
REMARK   57  A    between atoms: _146  and  _148
REMARK   58  A    between atoms: _148  and  _149
REMARK   59  A    between atoms: _148  and  _151
REMARK   60  A    between atoms: _151  and  _152
REMARK   61  A    between atoms: _155  and  _157
REMARK   62  A    between atoms: _157  and  _158
REMARK   63  A    between atoms: _157  and  _160
REMARK   64  A    between atoms: _160  and  _161
REMARK   65  A    between atoms: _163  and  _165
REMARK   66  A    between atoms: _165  and  _166
REMARK   67  A    between atoms: _165  and  _168
REMARK   68  A    between atoms: _168  and  _169
REMARK   69  A    between atoms: _169  and  _170
REMARK   70  A    between atoms: _170  and  _171
REMARK   71  A    between atoms: _180  and  _182
REMARK   72  A    between atoms: _182  and  _183
REMARK   73  A    between atoms: _182  and  _185
REMARK   74  A    between atoms: _185  and  _186
REMARK   75  A    between atoms: _196  and  _198
REMARK   76  A    between atoms: _198  and  _199
REMARK   77  A    between atoms: _198  and  _201
REMARK   78  A    between atoms: _201  and  _202
REMARK   79  A    between atoms: _202  and  _203
REMARK   80  A    between atoms: _208  and  _210
REMARK   81  A    between atoms: _210  and  _211
REMARK   82  A    between atoms: _214  and  _216
REMARK   83  A    between atoms: _216  and  _217
REMARK   84  A    between atoms: _216  and  _219
REMARK   85  A    between atoms: _219  and  _220
REMARK   86  A    between atoms: _228  and  _230
REMARK   87  A    between atoms: _230  and  _231
REMARK   88  A    between atoms: _230  and  _233
REMARK   89  A    between atoms: _233  and  _234
REMARK   90  A    between atoms: _237  and  _239
REMARK   91  A    between atoms: _239  and  _240
REMARK   92  A    between atoms: _239  and  _242
REMARK   93  A    between atoms: _242  and  _243
REMARK   94  A    between atoms: _248  and  _249
REMARK   95  A    between atoms: _252  and  _253
REMARK   96  A    between atoms: _258  and  _260
REMARK   97  A    between atoms: _260  and  _261
REMARK   98  A    between atoms: _260  and  _263
REMARK   99  A    between atoms: _263  and  _264
REMARK  100  A    between atoms: _274  and  _276
REMARK  101  A    between atoms: _276  and  _277
REMARK  102  A    between atoms: _276  and  _279
REMARK  103  A    between atoms: _279  and  _280
REMARK  104  A    between atoms: _280  and  _281
REMARK  105  A    between atoms: _281  and  _282
REMARK  106  A    between atoms: _291  and  _293
REMARK  107  A    between atoms: _293  and  _294
REMARK  108  A    between atoms: _293  and  _296
REMARK  109  A    between atoms: _296  and  _297
REMARK  110  A    between atoms: _302  and  _304
REMARK  111  A    between atoms: _304  and  _305
REMARK  112  A    between atoms: _304  and  _307
REMARK  113  A    between atoms: _307  and  _308
REMARK  114  A    between atoms: _308  and  _309
REMARK  115  A    between atoms: _309  and  _310
REMARK  116  A    between atoms: _320  and  _321
REMARK  117  A    between atoms: _326  and  _328
REMARK  118  A    between atoms: _339  and  _342
REMARK  119  A    between atoms: _342  and  _343
REMARK  120  A    between atoms: _348  and  _349
REMARK  121  A    between atoms: _357  and  _359
REMARK  122  A    between atoms: _359  and  _360
REMARK  123  A    between atoms: _359  and  _362
REMARK  124  A    between atoms: _362  and  _363
REMARK  125  A    between atoms: _363  and  _364
REMARK  126  A    between atoms: _369  and  _371
REMARK  127  A    between atoms: _371  and  _372
REMARK  128  A    between atoms: _371  and  _374
REMARK  129  A    between atoms: _374  and  _375
REMARK  130  A    between atoms: _380  and  _381
REMARK  131  A    between atoms: _383  and  _385
REMARK  132  A    between atoms: _385  and  _386
REMARK  133  A    between atoms: _385  and  _388
REMARK  134  A    between atoms: _390  and  _392
REMARK  135  A    between atoms: _392  and  _393
REMARK  136  A    between atoms: _392  and  _395
REMARK  137  A    between atoms: _395  and  _396
REMARK  138  A    between atoms: _399  and  _401
REMARK  139  A    between atoms: _401  and  _402
REMARK  140  A    between atoms: _401  and  _404
REMARK  141  A    between atoms: _404  and  _405
REMARK  142  A    between atoms: _405  and  _406
REMARK                            x       y       z     vdW  Elec       q    Type
REMARK                         _______ _______ _______ _____ _____    ______ ____
ROOT
ATOM      1  CA  ARG A   1       8.219   9.599  37.787  0.00  0.00    +0.145 C 
ENDROOT
BRANCH   1   2
ATOM      2  C   ARG A   1       7.238   8.394  37.628  0.00  0.00    +0.245 C 
ATOM      3  O   ARG A   1       6.411   8.172  38.568  0.00  0.00    -0.273 OA
ATOM      4  N   PRO A   2       7.383   7.654  36.545  0.00  0.00    -0.251 N 
ATOM      5  CA  PRO A   2       6.616   6.415  36.386  0.00  0.00    +0.149 C 
ATOM      6  CB  PRO A   2       7.157   5.786  35.107  0.00  0.00    +0.056 C 
ATOM      7  CG  PRO A   2       8.076   6.760  34.483  0.00  0.00    -0.008 C 
ATOM      8  CD  PRO A   2       8.346   7.889  35.466  0.00  0.00    +0.063 C 
BRANCH   5   9
ATOM      9  C   PRO A   2       7.123   5.495  37.530  0.00  0.00    +0.228 C 
ATOM     10  O   PRO A   2       8.246   5.705  38.060  0.00  0.00    -0.286 OA
ENDBRANCH   5   9
ENDBRANCH   1   2
BRANCH   1  11
ATOM     11  N   ARG A   1       7.367  10.738  38.282  0.00  0.00    -0.238 NA
ATOM     12  H   ARG A   1       7.383  11.034  39.279  0.00  0.00    +0.142 HD
ENDBRANCH   1  11
BRANCH   1  13
ATOM     13  CB  ARG A   1       9.155   9.128  38.934  0.00  0.00    +0.030 C 
BRANCH  13  14
ATOM     14  CG  ARG A   1      10.267  10.066  39.392  0.00  0.00    +0.045 C 
BRANCH  14  15
ATOM     15  CD  ARG A   1      10.924  10.680  38.195  0.00  0.00    +0.174 C 
BRANCH  15  16
ATOM     16  NE  ARG A   1      11.258   9.815  37.125  0.00  0.00    -0.265 N 
ATOM     17  CZ  ARG A   1      12.054   8.752  37.070  0.00  0.00    +0.342 C 
ATOM     18  NH2 ARG A   1      12.732   8.292  38.119  0.00  0.00    -0.292 N 
ATOM     19 HH21 ARG A   1      12.653   8.770  39.039  0.00  0.00    +0.255 HD
ATOM     20 HH22 ARG A   1      13.341   7.455  38.018  0.00  0.00    +0.255 HD
ATOM     21  NH1 ARG A   1      12.193   8.080  35.887  0.00  0.00    -0.292 N 
ATOM     22 HH11 ARG A   1      12.813   7.247  35.832  0.00  0.00    +0.255 HD
ATOM     23 HH12 ARG A   1      11.679   8.402  35.042  0.00  0.00    +0.255 HD
ATOM     24  HE  ARG A   1      10.799  10.054  36.223  0.00  0.00    +0.259 HD
ENDBRANCH  15  16
ENDBRANCH  14  15
ENDBRANCH  13  14
ENDBRANCH   1  13
TORSDOF 7
REMARK  Name = ../refined-set-2016/3pcg/3pcg_pocket.pdb
REMARK  142 active torsions:
REMARK  status: ('A' for Active; 'I' for Inactive)
REMARK    1  A    between atoms: _1  and  _3
REMARK    2  A    between atoms: _3  and  _4
REMARK    3  A    between atoms: _3  and  _6
REMARK    4  A    between atoms: _6  and  _7
REMARK    5  A    between atoms: _7  and  _8
REMARK    6  A    between atoms: _13  and  _15
REMARK    7  A    between atoms: _15  and  _16
REMARK    8  A    between atoms: _15  and  _18
REMARK    9  A    between atoms: _18  and  _19
REMARK   10  A    between atoms: _22  and  _24
REMARK   11  A    between atoms: _24  and  _25
REMARK   12  A    between atoms: _28  and  _30
REMARK   13  A    between atoms: _30  and  _31
REMARK   14  A    between atoms: _34  and  _35
REMARK   15  A    between atoms: _40  and  _42
REMARK   16  A    between atoms: _42  and  _43
REMARK   17  A    between atoms: _42  and  _45
REMARK   18  A    between atoms: _45  and  _46
REMARK   19  A    between atoms: _51  and  _52
REMARK   20  A    between atoms: _54  and  _56
REMARK   21  A    between atoms: _56  and  _57
REMARK   22  A    between atoms: _56  and  _59
REMARK   23  A    between atoms: _62  and  _64
REMARK   24  A    between atoms: _64  and  _65
REMARK   25  A    between atoms: _64  and  _67
REMARK   26  A    between atoms: _67  and  _68
REMARK   27  A    between atoms: _71  and  _73
REMARK   28  A    between atoms: _73  and  _74
REMARK   29  A    between atoms: _77  and  _79
REMARK   30  A    between atoms: _79  and  _80
REMARK   31  A    between atoms: _79  and  _82
REMARK   32  A    between atoms: _82  and  _83
REMARK   33  A    between atoms: _83  and  _84
REMARK   34  A    between atoms: _84  and  _85
REMARK   35  A    between atoms: _94  and  _96
REMARK   36  A    between atoms: _96  and  _97
REMARK   37  A    between atoms: _99  and  _101
REMARK   38  A    between atoms: _101  and  _102
REMARK   39  A    between atoms: _101  and  _104
REMARK   40  A    between atoms: _104  and  _105
REMARK   41  A    between atoms: _108  and  _110
REMARK   42  A    between atoms: _110  and  _111
REMARK   43  A    between atoms: _110  and  _113
REMARK   44  A    between atoms: _113  and  _114
REMARK   45  A    between atoms: _119  and  _121
REMARK   46  A    between atoms: _121  and  _122
REMARK   47  A    between atoms: _121  and  _124
REMARK   48  A    between atoms: _124  and  _125
REMARK   49  A    between atoms: _130  and  _131
REMARK   50  A    between atoms: _133  and  _135
REMARK   51  A    between atoms: _135  and  _136
REMARK   52  A    between atoms: _135  and  _138
REMARK   53  A    between atoms: _138  and  _139
REMARK   54  A    between atoms: _139  and  _140
REMARK   55  A    between atoms: _140  and  _141
REMARK   56  A    between atoms: _141  and  _142
REMARK   57  A    between atoms: _146  and  _148
REMARK   58  A    between atoms: _148  and  _149
REMARK   59  A    between atoms: _148  and  _151
REMARK   60  A    between atoms: _151  and  _152
REMARK   61  A    between atoms: _155  and  _157
REMARK   62  A    between atoms: _157  and  _158
REMARK   63  A    between atoms: _157  and  _160
REMARK   64  A    between atoms: _160  and  _161
REMARK   65  A    between atoms: _163  and  _165
REMARK   66  A    between atoms: _165  and  _166
REMARK   67  A    between atoms: _165  and  _168
REMARK   68  A    between atoms: _168  and  _169
REMARK   69  A    between atoms: _169  and  _170
REMARK   70  A    between atoms: _170  and  _171
REMARK   71  A    between atoms: _180  and  _182
REMARK   72  A    between atoms: _182  and  _183
REMARK   73  A    between atoms: _182  and  _185
REMARK   74  A    between atoms: _185  and  _186
REMARK   75  A    between atoms: _196  and  _198
REMARK   76  A    between atoms: _198  and  _199
REMARK   77  A    between atoms: _198  and  _201
REMARK   78  A    between atoms: _201  and  _202
REMARK   79  A    between atoms: _202  and  _203
REMARK   80  A    between atoms: _208  and  _210
REMARK   81  A    between atoms: _210  and  _211
REMARK   82  A    between atoms: _214  and  _216
REMARK   83  A    between atoms: _216  and  _217
REMARK   84  A    between atoms: _216  and  _219
REMARK   85  A    between atoms: _219  and  _220
REMARK   86  A    between atoms: _228  and  _230
REMARK   87  A    between atoms: _230  and  _231
REMARK   88  A    between atoms: _230  and  _233
REMARK   89  A    between atoms: _233  and  _234
REMARK   90  A    between atoms: _237  and  _239
REMARK   91  A    between atoms: _239  and  _240
REMARK   92  A    between atoms: _239  and  _242
REMARK   93  A    between atoms: _242  and  _243
REMARK   94  A    between atoms: _248  and  _249
REMARK   95  A    between atoms: _252  and  _253
REMARK   96  A    between atoms: _258  and  _260
REMARK   97  A    between atoms: _260  and  _261
REMARK   98  A    between atoms: _260  and  _263
REMARK   99  A    between atoms: _263  and  _264
REMARK  100  A    between atoms: _274  and  _276
REMARK  101  A    between atoms: _276  and  _277
REMARK  102  A    between atoms: _276  and  _279
REMARK  103  A    between atoms: _279  and  _280
REMARK  104  A    between atoms: _280  and  _281
REMARK  105  A    between atoms: _281  and  _282
REMARK  106  A    between atoms: _291  and  _293
REMARK  107  A    between atoms: _293  and  _294
REMARK  108  A    between atoms: _293  and  _296
REMARK  109  A    between atoms: _296  and  _297
REMARK  110  A    between atoms: _302  and  _304
REMARK  111  A    between atoms: _304  and  _305
REMARK  112  A    between atoms: _304  and  _307
REMARK  113  A    between atoms: _307  and  _308
REMARK  114  A    between atoms: _308  and  _309
REMARK  115  A    between atoms: _309  and  _310
REMARK  116  A    between atoms: _320  and  _321
REMARK  117  A    between atoms: _326  and  _328
REMARK  118  A    between atoms: _339  and  _342
REMARK  119  A    between atoms: _342  and  _343
REMARK  120  A    between atoms: _348  and  _349
REMARK  121  A    between atoms: _357  and  _359
REMARK  122  A    between atoms: _359  and  _360
REMARK  123  A    between atoms: _359  and  _362
REMARK  124  A    between atoms: _362  and  _363
REMARK  125  A    between atoms: _363  and  _364
REMARK  126  A    between atoms: _369  and  _371
REMARK  127  A    between atoms: _371  and  _372
REMARK  128  A    between atoms: _371  and  _374
REMARK  129  A    between atoms: _374  and  _375
REMARK  130  A    between atoms: _380  and  _381
REMARK  131  A    between atoms: _383  and  _385
REMARK  132  A    between atoms: _385  and  _386
REMARK  133  A    between atoms: _385  and  _388
REMARK  134  A    between atoms: _390  and  _392
REMARK  135  A    between atoms: _392  and  _393
REMARK  136  A    between atoms: _392  and  _395
REMARK  137  A    between atoms: _395  and  _396
REMARK  138  A    between atoms: _399  and  _401
REMARK  139  A    between atoms: _401  and  _402
REMARK  140  A    between atoms: _401  and  _404
REMARK  141  A    between atoms: _404  and  _405
REMARK  142  A    between atoms: _405  and  _406
REMARK                            x       y       z     vdW  Elec       q    Type
REMARK                         _______ _______ _______ _____ _____    ______ ____
ROOT
ATOM      1  CB  GLN A   1      15.340   3.428  36.466  0.00  0.00    +0.035 C 
ENDROOT
BRANCH   1   2
ATOM      2  CA  GLN A   1      15.974   2.052  36.288  0.00  0.00    +0.134 C 
BRANCH   2   3
ATOM      3  N   GLN A   1      17.332   2.095  35.703  0.00  0.00    -0.239 NA
ATOM      4  H   GLN A   1      17.430   2.147  34.669  0.00  0.00    +0.142 HD
ENDBRANCH   2   3
BRANCH   2   5
ATOM      5  C   GLN A   1      15.107   1.131  35.436  0.00  0.00    +0.224 C 
ATOM      6  O   GLN A   1      15.234   1.146  34.199  0.00  0.00    -0.287 OA
ENDBRANCH   2   5
ENDBRANCH   1   2
BRANCH   1   7
ATOM      7  CG  GLN A   1      16.128   4.399  37.332  0.00  0.00    +0.087 C 
BRANCH   7   8
ATOM      8  CD  GLN A   1      15.536   5.781  37.437  0.00  0.00    +0.219 C 
ATOM      9  NE2 GLN A   1      16.367   6.814  37.554  0.00  0.00    -0.329 N 
ATOM     10 HE21 GLN A   1      15.988   7.774  37.684  0.00  0.00    +0.145 HD
ATOM     11 HE22 GLN A   1      17.395   6.661  37.515  0.00  0.00    +0.145 HD
ATOM     12  OE1 GLN A   1      14.299   5.951  37.482  0.00  0.00    -0.275 OA
ENDBRANCH   7   8
ENDBRANCH   1   7
TORSDOF 5
REMARK  Name = ../refined-set-2016/3pcg/3pcg_pocket.pdb
REMARK  142 active torsions:
REMARK  status: ('A' for Active; 'I' for Inactive)
REMARK    1  A    between atoms: _1  and  _3
REMARK    2  A    between atoms: _3  and  _4
REMARK    3  A    between atoms: _3  and  _6
REMARK    4  A    between atoms: _6  and  _7
REMARK    5  A    between atoms: _7  and  _8
REMARK    6  A    between atoms: _13  and  _15
REMARK    7  A    between atoms: _15  and  _16
REMARK    8  A    between atoms: _15  and  _18
REMARK    9  A    between atoms: _18  and  _19
REMARK   10  A    between atoms: _22  and  _24
REMARK   11  A    between atoms: _24  and  _25
REMARK   12  A    between atoms: _28  and  _30
REMARK   13  A    between atoms: _30  and  _31
REMARK   14  A    between atoms: _34  and  _35
REMARK   15  A    between atoms: _40  and  _42
REMARK   16  A    between atoms: _42  and  _43
REMARK   17  A    between atoms: _42  and  _45
REMARK   18  A    between atoms: _45  and  _46
REMARK   19  A    between atoms: _51  and  _52
REMARK   20  A    between atoms: _54  and  _56
REMARK   21  A    between atoms: _56  and  _57
REMARK   22  A    between atoms: _56  and  _59
REMARK   23  A    between atoms: _62  and  _64
REMARK   24  A    between atoms: _64  and  _65
REMARK   25  A    between atoms: _64  and  _67
REMARK   26  A    between atoms: _67  and  _68
REMARK   27  A    between atoms: _71  and  _73
REMARK   28  A    between atoms: _73  and  _74
REMARK   29  A    between atoms: _77  and  _79
REMARK   30  A    between atoms: _79  and  _80
REMARK   31  A    between atoms: _79  and  _82
REMARK   32  A    between atoms: _82  and  _83
REMARK   33  A    between atoms: _83  and  _84
REMARK   34  A    between atoms: _84  and  _85
REMARK   35  A    between atoms: _94  and  _96
REMARK   36  A    between atoms: _96  and  _97
REMARK   37  A    between atoms: _99  and  _101
REMARK   38  A    between atoms: _101  and  _102
REMARK   39  A    between atoms: _101  and  _104
REMARK   40  A    between atoms: _104  and  _105
REMARK   41  A    between atoms: _108  and  _110
REMARK   42  A    between atoms: _110  and  _111
REMARK   43  A    between atoms: _110  and  _113
REMARK   44  A    between atoms: _113  and  _114
REMARK   45  A    between atoms: _119  and  _121
REMARK   46  A    between atoms: _121  and  _122
REMARK   47  A    between atoms: _121  and  _124
REMARK   48  A    between atoms: _124  and  _125
REMARK   49  A    between atoms: _130  and  _131
REMARK   50  A    between atoms: _133  and  _135
REMARK   51  A    between atoms: _135  and  _136
REMARK   52  A    between atoms: _135  and  _138
REMARK   53  A    between atoms: _138  and  _139
REMARK   54  A    between atoms: _139  and  _140
REMARK   55  A    between atoms: _140  and  _141
REMARK   56  A    between atoms: _141  and  _142
REMARK   57  A    between atoms: _146  and  _148
REMARK   58  A    between atoms: _148  and  _149
REMARK   59  A    between atoms: _148  and  _151
REMARK   60  A    between atoms: _151  and  _152
REMARK   61  A    between atoms: _155  and  _157
REMARK   62  A    between atoms: _157  and  _158
REMARK   63  A    between atoms: _157  and  _160
REMARK   64  A    between atoms: _160  and  _161
REMARK   65  A    between atoms: _163  and  _165
REMARK   66  A    between atoms: _165  and  _166
REMARK   67  A    between atoms: _165  and  _168
REMARK   68  A    between atoms: _168  and  _169
REMARK   69  A    between atoms: _169  and  _170
REMARK   70  A    between atoms: _170  and  _171
REMARK   71  A    between atoms: _180  and  _182
REMARK   72  A    between atoms: _182  and  _183
REMARK   73  A    between atoms: _182  and  _185
REMARK   74  A    between atoms: _185  and  _186
REMARK   75  A    between atoms: _196  and  _198
REMARK   76  A    between atoms: _198  and  _199
REMARK   77  A    between atoms: _198  and  _201
REMARK   78  A    between atoms: _201  and  _202
REMARK   79  A    between atoms: _202  and  _203
REMARK   80  A    between atoms: _208  and  _210
REMARK   81  A    between atoms: _210  and  _211
REMARK   82  A    between atoms: _214  and  _216
REMARK   83  A    between atoms: _216  and  _217
REMARK   84  A    between atoms: _216  and  _219
REMARK   85  A    between atoms: _219  and  _220
REMARK   86  A    between atoms: _228  and  _230
REMARK   87  A    between atoms: _230  and  _231
REMARK   88  A    between atoms: _230  and  _233
REMARK   89  A    between atoms: _233  and  _234
REMARK   90  A    between atoms: _237  and  _239
REMARK   91  A    between atoms: _239  and  _240
REMARK   92  A    between atoms: _239  and  _242
REMARK   93  A    between atoms: _242  and  _243
REMARK   94  A    between atoms: _248  and  _249
REMARK   95  A    between atoms: _252  and  _253
REMARK   96  A    between atoms: _258  and  _260
REMARK   97  A    between atoms: _260  and  _261
REMARK   98  A    between atoms: _260  and  _263
REMARK   99  A    between atoms: _263  and  _264
REMARK  100  A    between atoms: _274  and  _276
REMARK  101  A    between atoms: _276  and  _277
REMARK  102  A    between atoms: _276  and  _279
REMARK  103  A    between atoms: _279  and  _280
REMARK  104  A    between atoms: _280  and  _281
REMARK  105  A    between atoms: _281  and  _282
REMARK  106  A    between atoms: _291  and  _293
REMARK  107  A    between atoms: _293  and  _294
REMARK  108  A    between atoms: _293  and  _296
REMARK  109  A    between atoms: _296  and  _297
REMARK  110  A    between atoms: _302  and  _304
REMARK  111  A    between atoms: _304  and  _305
REMARK  112  A    between atoms: _304  and  _307
REMARK  113  A    between atoms: _307  and  _308
REMARK  114  A    between atoms: _308  and  _309
REMARK  115  A    between atoms: _309  and  _310
REMARK  116  A    between atoms: _320  and  _321
REMARK  117  A    between atoms: _326  and  _328
REMARK  118  A    between atoms: _339  and  _342
REMARK  119  A    between atoms: _342  and  _343
REMARK  120  A    between atoms: _348  and  _349
REMARK  121  A    between atoms: _357  and  _359
REMARK  122  A    between atoms: _359  and  _360
REMARK  123  A    between atoms: _359  and  _362
REMARK  124  A    between atoms: _362  and  _363
REMARK  125  A    between atoms: _363  and  _364
REMARK  126  A    between atoms: _369  and  _371
REMARK  127  A    between atoms: _371  and  _372
REMARK  128  A    between atoms: _371  and  _374
REMARK  129  A    between atoms: _374  and  _375
REMARK  130  A    between atoms: _380  and  _381
REMARK  131  A    between atoms: _383  and  _385
REMARK  132  A    between atoms: _385  and  _386
REMARK  133  A    between atoms: _385  and  _388
REMARK  134  A    between atoms: _390  and  _392
REMARK  135  A    between atoms: _392  and  _393
REMARK  136  A    between atoms: _392  and  _395
REMARK  137  A    between atoms: _395  and  _396
REMARK  138  A    between atoms: _399  and  _401
REMARK  139  A    between atoms: _401  and  _402
REMARK  140  A    between atoms: _401  and  _404
REMARK  141  A    between atoms: _404  and  _405
REMARK  142  A    between atoms: _405  and  _406
REMARK                            x       y       z     vdW  Elec       q    Type
REMARK                         _______ _______ _______ _____ _____    ______ ____
ROOT
ATOM      1  CG  TYR A   1      10.943   2.812  33.479  0.00  0.00    -0.020 A 
ATOM      2  CD2 TYR A   1      10.709   3.693  34.568  0.00  0.00    -0.001 A 
ATOM      3  CE2 TYR A   1      11.590   4.727  34.842  0.00  0.00    +0.036 A 
ATOM      4  CZ  TYR A   1      12.743   4.879  34.058  0.00  0.00    +0.134 A 
ATOM      5  CE1 TYR A   1      12.977   4.047  32.994  0.00  0.00    +0.036 A 
ATOM      6  CD1 TYR A   1      12.093   2.986  32.715  0.00  0.00    -0.001 A 
ENDROOT
BRANCH   4   7
ATOM      7  OH  TYR A   1      13.539   5.942  34.389  0.00  0.00    -0.506 OA
ATOM      8  HH  TYR A   1      13.565   6.581  33.634  0.00  0.00    +0.292 HD
ENDBRANCH   4   7
BRANCH   1   9
ATOM      9  CB  TYR A   1       9.937   1.713  33.236  0.00  0.00    +0.051 C 
BRANCH   9  10
ATOM     10  CA  TYR A   1       9.984   0.621  34.307  0.00  0.00    +0.137 C 
BRANCH  10  11
ATOM     11  N   TYR A   1      11.346   0.036  34.429  0.00  0.00    -0.239 NA
ATOM     12  H   TYR A   1      11.763  -0.414  33.589  0.00  0.00    +0.142 HD
ENDBRANCH  10  11
BRANCH  10  13
ATOM     13  C   TYR A   1       9.053  -0.545  34.078  0.00  0.00    +0.224 C 
ATOM     14  O   TYR A   1       9.565  -1.625  33.719  0.00  0.00    -0.287 OA
ENDBRANCH  10  13
ENDBRANCH   9  10
ENDBRANCH   1   9
TORSDOF 5
REMARK  Name = ../refined-set-2016/3pcg/3pcg_pocket.pdb
REMARK  142 active torsions:
REMARK  status: ('A' for Active; 'I' for Inactive)
REMARK    1  A    between atoms: _1  and  _3
REMARK    2  A    between atoms: _3  and  _4
REMARK    3  A    between atoms: _3  and  _6
REMARK    4  A    between atoms: _6  and  _7
REMARK    5  A    between atoms: _7  and  _8
REMARK    6  A    between atoms: _13  and  _15
REMARK    7  A    between atoms: _15  and  _16
REMARK    8  A    between atoms: _15  and  _18
REMARK    9  A    between atoms: _18  and  _19
REMARK   10  A    between atoms: _22  and  _24
REMARK   11  A    between atoms: _24  and  _25
REMARK   12  A    between atoms: _28  and  _30
REMARK   13  A    between atoms: _30  and  _31
REMARK   14  A    between atoms: _34  and  _35
REMARK   15  A    between atoms: _40  and  _42
REMARK   16  A    between atoms: _42  and  _43
REMARK   17  A    between atoms: _42  and  _45
REMARK   18  A    between atoms: _45  and  _46
REMARK   19  A    between atoms: _51  and  _52
REMARK   20  A    between atoms: _54  and  _56
REMARK   21  A    between atoms: _56  and  _57
REMARK   22  A    between atoms: _56  and  _59
REMARK   23  A    between atoms: _62  and  _64
REMARK   24  A    between atoms: _64  and  _65
REMARK   25  A    between atoms: _64  and  _67
REMARK   26  A    between atoms: _67  and  _68
REMARK   27  A    between atoms: _71  and  _73
REMARK   28  A    between atoms: _73  and  _74
REMARK   29  A    between atoms: _77  and  _79
REMARK   30  A    between atoms: _79  and  _80
REMARK   31  A    between atoms: _79  and  _82
REMARK   32  A    between atoms: _82  and  _83
REMARK   33  A    between atoms: _83  and  _84
REMARK   34  A    between atoms: _84  and  _85
REMARK   35  A    between atoms: _94  and  _96
REMARK   36  A    between atoms: _96  and  _97
REMARK   37  A    between atoms: _99  and  _101
REMARK   38  A    between atoms: _101  and  _102
REMARK   39  A    between atoms: _101  and  _104
REMARK   40  A    between atoms: _104  and  _105
REMARK   41  A    between atoms: _108  and  _110
REMARK   42  A    between atoms: _110  and  _111
REMARK   43  A    between atoms: _110  and  _113
REMARK   44  A    between atoms: _113  and  _114
REMARK   45  A    between atoms: _119  and  _121
REMARK   46  A    between atoms: _121  and  _122
REMARK   47  A    between atoms: _121  and  _124
REMARK   48  A    between atoms: _124  and  _125
REMARK   49  A    between atoms: _130  and  _131
REMARK   50  A    between atoms: _133  and  _135
REMARK   51  A    between atoms: _135  and  _136
REMARK   52  A    between atoms: _135  and  _138
REMARK   53  A    between atoms: _138  and  _139
REMARK   54  A    between atoms: _139  and  _140
REMARK   55  A    between atoms: _140  and  _141
REMARK   56  A    between atoms: _141  and  _142
REMARK   57  A    between atoms: _146  and  _148
REMARK   58  A    between atoms: _148  and  _149
REMARK   59  A    between atoms: _148  and  _151
REMARK   60  A    between atoms: _151  and  _152
REMARK   61  A    between atoms: _155  and  _157
REMARK   62  A    between atoms: _157  and  _158
REMARK   63  A    between atoms: _157  and  _160
REMARK   64  A    between atoms: _160  and  _161
REMARK   65  A    between atoms: _163  and  _165
REMARK   66  A    between atoms: _165  and  _166
REMARK   67  A    between atoms: _165  and  _168
REMARK   68  A    between atoms: _168  and  _169
REMARK   69  A    between atoms: _169  and  _170
REMARK   70  A    between atoms: _170  and  _171
REMARK   71  A    between atoms: _180  and  _182
REMARK   72  A    between atoms: _182  and  _183
REMARK   73  A    between atoms: _182  and  _185
REMARK   74  A    between atoms: _185  and  _186
REMARK   75  A    between atoms: _196  and  _198
REMARK   76  A    between atoms: _198  and  _199
REMARK   77  A    between atoms: _198  and  _201
REMARK   78  A    between atoms: _201  and  _202
REMARK   79  A    between atoms: _202  and  _203
REMARK   80  A    between atoms: _208  and  _210
REMARK   81  A    between atoms: _210  and  _211
REMARK   82  A    between atoms: _214  and  _216
REMARK   83  A    between atoms: _216  and  _217
REMARK   84  A    between atoms: _216  and  _219
REMARK   85  A    between atoms: _219  and  _220
REMARK   86  A    between atoms: _228  and  _230
REMARK   87  A    between atoms: _230  and  _231
REMARK   88  A    between atoms: _230  and  _233
REMARK   89  A    between atoms: _233  and  _234
REMARK   90  A    between atoms: _237  and  _239
REMARK   91  A    between atoms: _239  and  _240
REMARK   92  A    between atoms: _239  and  _242
REMARK   93  A    between atoms: _242  and  _243
REMARK   94  A    between atoms: _248  and  _249
REMARK   95  A    between atoms: _252  and  _253
REMARK   96  A    between atoms: _258  and  _260
REMARK   97  A    between atoms: _260  and  _261
REMARK   98  A    between atoms: _260  and  _263
REMARK   99  A    between atoms: _263  and  _264
REMARK  100  A    between atoms: _274  and  _276
REMARK  101  A    between atoms: _276  and  _277
REMARK  102  A    between atoms: _276  and  _279
REMARK  103  A    between atoms: _279  and  _280
REMARK  104  A    between atoms: _280  and  _281
REMARK  105  A    between atoms: _281  and  _282
REMARK  106  A    between atoms: _291  and  _293
REMARK  107  A    between atoms: _293  and  _294
REMARK  108  A    between atoms: _293  and  _296
REMARK  109  A    between atoms: _296  and  _297
REMARK  110  A    between atoms: _302  and  _304
REMARK  111  A    between atoms: _304  and  _305
REMARK  112  A    between atoms: _304  and  _307
REMARK  113  A    between atoms: _307  and  _308
REMARK  114  A    between atoms: _308  and  _309
REMARK  115  A    between atoms: _309  and  _310
REMARK  116  A    between atoms: _320  and  _321
REMARK  117  A    between atoms: _326  and  _328
REMARK  118  A    between atoms: _339  and  _342
REMARK  119  A    between atoms: _342  and  _343
REMARK  120  A    between atoms: _348  and  _349
REMARK  121  A    between atoms: _357  and  _359
REMARK  122  A    between atoms: _359  and  _360
REMARK  123  A    between atoms: _359  and  _362
REMARK  124  A    between atoms: _362  and  _363
REMARK  125  A    between atoms: _363  and  _364
REMARK  126  A    between atoms: _369  and  _371
REMARK  127  A    between atoms: _371  and  _372
REMARK  128  A    between atoms: _371  and  _374
REMARK  129  A    between atoms: _374  and  _375
REMARK  130  A    between atoms: _380  and  _381
REMARK  131  A    between atoms: _383  and  _385
REMARK  132  A    between atoms: _385  and  _386
REMARK  133  A    between atoms: _385  and  _388
REMARK  134  A    between atoms: _390  and  _392
REMARK  135  A    between atoms: _392  and  _393
REMARK  136  A    between atoms: _392  and  _395
REMARK  137  A    between atoms: _395  and  _396
REMARK  138  A    between atoms: _399  and  _401
REMARK  139  A    between atoms: _401  and  _402
REMARK  140  A    between atoms: _401  and  _404
REMARK  141  A    between atoms: _404  and  _405
REMARK  142  A    between atoms: _405  and  _406
REMARK                            x       y       z     vdW  Elec       q    Type
REMARK                         _______ _______ _______ _____ _____    ______ ____
ROOT
ATOM      1  CA  CYS A   1       9.089  11.430  31.893  0.00  0.00    +0.145 C 
ENDROOT
BRANCH   1   2
ATOM      2  N   CYS A   1       7.968  11.200  31.016  0.00  0.00    -0.238 NA
ATOM      3  H   CYS A   1       7.753  10.226  30.722  0.00  0.00    +0.142 HD
ENDBRANCH   1   2
BRANCH   1   4
ATOM      4  CB  CYS A   1       9.396  10.083  32.611  0.00  0.00    +0.094 C 
ATOM      5  SG  CYS A   1      10.709  10.374  33.865  0.00  0.00    -0.080 S 
ENDBRANCH   1   4
BRANCH   1   6
ATOM      6  C   CYS A   1      10.369  11.974  31.281  0.00  0.00    +0.225 C 
ATOM      7  O   CYS A   1      10.993  11.337  30.426  0.00  0.00    -0.287 OA
ENDBRANCH   1   6
TORSDOF 3
REMARK  Name = ../refined-set-2016/3pcg/3pcg_pocket.pdb
REMARK  142 active torsions:
REMARK  status: ('A' for Active; 'I' for Inactive)
REMARK    1  A    between atoms: _1  and  _3
REMARK    2  A    between atoms: _3  and  _4
REMARK    3  A    between atoms: _3  and  _6
REMARK    4  A    between atoms: _6  and  _7
REMARK    5  A    between atoms: _7  and  _8
REMARK    6  A    between atoms: _13  and  _15
REMARK    7  A    between atoms: _15  and  _16
REMARK    8  A    between atoms: _15  and  _18
REMARK    9  A    between atoms: _18  and  _19
REMARK   10  A    between atoms: _22  and  _24
REMARK   11  A    between atoms: _24  and  _25
REMARK   12  A    between atoms: _28  and  _30
REMARK   13  A    between atoms: _30  and  _31
REMARK   14  A    between atoms: _34  and  _35
REMARK   15  A    between atoms: _40  and  _42
REMARK   16  A    between atoms: _42  and  _43
REMARK   17  A    between atoms: _42  and  _45
REMARK   18  A    between atoms: _45  and  _46
REMARK   19  A    between atoms: _51  and  _52
REMARK   20  A    between atoms: _54  and  _56
REMARK   21  A    between atoms: _56  and  _57
REMARK   22  A    between atoms: _56  and  _59
REMARK   23  A    between atoms: _62  and  _64
REMARK   24  A    between atoms: _64  and  _65
REMARK   25  A    between atoms: _64  and  _67
REMARK   26  A    between atoms: _67  and  _68
REMARK   27  A    between atoms: _71  and  _73
REMARK   28  A    between atoms: _73  and  _74
REMARK   29  A    between atoms: _77  and  _79
REMARK   30  A    between atoms: _79  and  _80
REMARK   31  A    between atoms: _79  and  _82
REMARK   32  A    between atoms: _82  and  _83
REMARK   33  A    between atoms: _83  and  _84
REMARK   34  A    between atoms: _84  and  _85
REMARK   35  A    between atoms: _94  and  _96
REMARK   36  A    between atoms: _96  and  _97
REMARK   37  A    between atoms: _99  and  _101
REMARK   38  A    between atoms: _101  and  _102
REMARK   39  A    between atoms: _101  and  _104
REMARK   40  A    between atoms: _104  and  _105
REMARK   41  A    between atoms: _108  and  _110
REMARK   42  A    between atoms: _110  and  _111
REMARK   43  A    between atoms: _110  and  _113
REMARK   44  A    between atoms: _113  and  _114
REMARK   45  A    between atoms: _119  and  _121
REMARK   46  A    between atoms: _121  and  _122
REMARK   47  A    between atoms: _121  and  _124
REMARK   48  A    between atoms: _124  and  _125
REMARK   49  A    between atoms: _130  and  _131
REMARK   50  A    between atoms: _133  and  _135
REMARK   51  A    between atoms: _135  and  _136
REMARK   52  A    between atoms: _135  and  _138
REMARK   53  A    between atoms: _138  and  _139
REMARK   54  A    between atoms: _139  and  _140
REMARK   55  A    between atoms: _140  and  _141
REMARK   56  A    between atoms: _141  and  _142
REMARK   57  A    between atoms: _146  and  _148
REMARK   58  A    between atoms: _148  and  _149
REMARK   59  A    between atoms: _148  and  _151
REMARK   60  A    between atoms: _151  and  _152
REMARK   61  A    between atoms: _155  and  _157
REMARK   62  A    between atoms: _157  and  _158
REMARK   63  A    between atoms: _157  and  _160
REMARK   64  A    between atoms: _160  and  _161
REMARK   65  A    between atoms: _163  and  _165
REMARK   66  A    between atoms: _165  and  _166
REMARK   67  A    between atoms: _165  and  _168
REMARK   68  A    between atoms: _168  and  _169
REMARK   69  A    between atoms: _169  and  _170
REMARK   70  A    between atoms: _170  and  _171
REMARK   71  A    between atoms: _180  and  _182
REMARK   72  A    between atoms: _182  and  _183
REMARK   73  A    between atoms: _182  and  _185
REMARK   74  A    between atoms: _185  and  _186
REMARK   75  A    between atoms: _196  and  _198
REMARK   76  A    between atoms: _198  and  _199
REMARK   77  A    between atoms: _198  and  _201
REMARK   78  A    between atoms: _201  and  _202
REMARK   79  A    between atoms: _202  and  _203
REMARK   80  A    between atoms: _208  and  _210
REMARK   81  A    between atoms: _210  and  _211
REMARK   82  A    between atoms: _214  and  _216
REMARK   83  A    between atoms: _216  and  _217
REMARK   84  A    between atoms: _216  and  _219
REMARK   85  A    between atoms: _219  and  _220
REMARK   86  A    between atoms: _228  and  _230
REMARK   87  A    between atoms: _230  and  _231
REMARK   88  A    between atoms: _230  and  _233
REMARK   89  A    between atoms: _233  and  _234
REMARK   90  A    between atoms: _237  and  _239
REMARK   91  A    between atoms: _239  and  _240
REMARK   92  A    between atoms: _239  and  _242
REMARK   93  A    between atoms: _242  and  _243
REMARK   94  A    between atoms: _248  and  _249
REMARK   95  A    between atoms: _252  and  _253
REMARK   96  A    between atoms: _258  and  _260
REMARK   97  A    between atoms: _260  and  _261
REMARK   98  A    between atoms: _260  and  _263
REMARK   99  A    between atoms: _263  and  _264
REMARK  100  A    between atoms: _274  and  _276
REMARK  101  A    between atoms: _276  and  _277
REMARK  102  A    between atoms: _276  and  _279
REMARK  103  A    between atoms: _279  and  _280
REMARK  104  A    between atoms: _280  and  _281
REMARK  105  A    between atoms: _281  and  _282
REMARK  106  A    between atoms: _291  and  _293
REMARK  107  A    between atoms: _293  and  _294
REMARK  108  A    between atoms: _293  and  _296
REMARK  109  A    between atoms: _296  and  _297
REMARK  110  A    between atoms: _302  and  _304
REMARK  111  A    between atoms: _304  and  _305
REMARK  112  A    between atoms: _304  and  _307
REMARK  113  A    between atoms: _307  and  _308
REMARK  114  A    between atoms: _308  and  _309
REMARK  115  A    between atoms: _309  and  _310
REMARK  116  A    between atoms: _320  and  _321
REMARK  117  A    between atoms: _326  and  _328
REMARK  118  A    between atoms: _339  and  _342
REMARK  119  A    between atoms: _342  and  _343
REMARK  120  A    between atoms: _348  and  _349
REMARK  121  A    between atoms: _357  and  _359
REMARK  122  A    between atoms: _359  and  _360
REMARK  123  A    between atoms: _359  and  _362
REMARK  124  A    between atoms: _362  and  _363
REMARK  125  A    between atoms: _363  and  _364
REMARK  126  A    between atoms: _369  and  _371
REMARK  127  A    between atoms: _371  and  _372
REMARK  128  A    between atoms: _371  and  _374
REMARK  129  A    between atoms: _374  and  _375
REMARK  130  A    between atoms: _380  and  _381
REMARK  131  A    between atoms: _383  and  _385
REMARK  132  A    between atoms: _385  and  _386
REMARK  133  A    between atoms: _385  and  _388
REMARK  134  A    between atoms: _390  and  _392
REMARK  135  A    between atoms: _392  and  _393
REMARK  136  A    between atoms: _392  and  _395
REMARK  137  A    between atoms: _395  and  _396
REMARK  138  A    between atoms: _399  and  _401
REMARK  139  A    between atoms: _401  and  _402
REMARK  140  A    between atoms: _401  and  _404
REMARK  141  A    between atoms: _404  and  _405
REMARK  142  A    between atoms: _405  and  _406
REMARK                            x       y       z     vdW  Elec       q    Type
REMARK                         _______ _______ _______ _____ _____    ______ ____
ROOT
ATOM      1  CA  ILE A   1      14.420  11.214  32.875  0.00  0.00    +0.133 C 
ENDROOT
BRANCH   1   2
ATOM      2  N   ILE A   1      13.268  12.121  32.620  0.00  0.00    -0.239 NA
ATOM      3  H   ILE A   1      12.454  12.093  33.267  0.00  0.00    +0.142 HD
ENDBRANCH   1   2
BRANCH   1   4
ATOM      4  CB  ILE A   1      14.464  10.732  34.354  0.00  0.00    +0.023 C 
ATOM      5  CG2 ILE A   1      15.473   9.622  34.629  0.00  0.00    +0.002 C 
BRANCH   4   6
ATOM      6  CG1 ILE A   1      14.686  12.009  35.234  0.00  0.00    +0.002 C 
ATOM      7  CD1 ILE A   1      14.447  11.753  36.762  0.00  0.00    +0.000 C 
ENDBRANCH   4   6
ENDBRANCH   1   4
BRANCH   1   8
ATOM      8  C   ILE A   1      14.425  10.091  31.838  0.00  0.00    +0.224 C 
ATOM      9  O   ILE A   1      15.459   9.768  31.244  0.00  0.00    -0.287 OA
ENDBRANCH   1   8
TORSDOF 4
REMARK  Name = ../refined-set-2016/3pcg/3pcg_pocket.pdb
REMARK  142 active torsions:
REMARK  status: ('A' for Active; 'I' for Inactive)
REMARK    1  A    between atoms: _1  and  _3
REMARK    2  A    between atoms: _3  and  _4
REMARK    3  A    between atoms: _3  and  _6
REMARK    4  A    between atoms: _6  and  _7
REMARK    5  A    between atoms: _7  and  _8
REMARK    6  A    between atoms: _13  and  _15
REMARK    7  A    between atoms: _15  and  _16
REMARK    8  A    between atoms: _15  and  _18
REMARK    9  A    between atoms: _18  and  _19
REMARK   10  A    between atoms: _22  and  _24
REMARK   11  A    between atoms: _24  and  _25
REMARK   12  A    between atoms: _28  and  _30
REMARK   13  A    between atoms: _30  and  _31
REMARK   14  A    between atoms: _34  and  _35
REMARK   15  A    between atoms: _40  and  _42
REMARK   16  A    between atoms: _42  and  _43
REMARK   17  A    between atoms: _42  and  _45
REMARK   18  A    between atoms: _45  and  _46
REMARK   19  A    between atoms: _51  and  _52
REMARK   20  A    between atoms: _54  and  _56
REMARK   21  A    between atoms: _56  and  _57
REMARK   22  A    between atoms: _56  and  _59
REMARK   23  A    between atoms: _62  and  _64
REMARK   24  A    between atoms: _64  and  _65
REMARK   25  A    between atoms: _64  and  _67
REMARK   26  A    between atoms: _67  and  _68
REMARK   27  A    between atoms: _71  and  _73
REMARK   28  A    between atoms: _73  and  _74
REMARK   29  A    between atoms: _77  and  _79
REMARK   30  A    between atoms: _79  and  _80
REMARK   31  A    between atoms: _79  and  _82
REMARK   32  A    between atoms: _82  and  _83
REMARK   33  A    between atoms: _83  and  _84
REMARK   34  A    between atoms: _84  and  _85
REMARK   35  A    between atoms: _94  and  _96
REMARK   36  A    between atoms: _96  and  _97
REMARK   37  A    between atoms: _99  and  _101
REMARK   38  A    between atoms: _101  and  _102
REMARK   39  A    between atoms: _101  and  _104
REMARK   40  A    between atoms: _104  and  _105
REMARK   41  A    between atoms: _108  and  _110
REMARK   42  A    between atoms: _110  and  _111
REMARK   43  A    between atoms: _110  and  _113
REMARK   44  A    between atoms: _113  and  _114
REMARK   45  A    between atoms: _119  and  _121
REMARK   46  A    between atoms: _121  and  _122
REMARK   47  A    between atoms: _121  and  _124
REMARK   48  A    between atoms: _124  and  _125
REMARK   49  A    between atoms: _130  and  _131
REMARK   50  A    between atoms: _133  and  _135
REMARK   51  A    between atoms: _135  and  _136
REMARK   52  A    between atoms: _135  and  _138
REMARK   53  A    between atoms: _138  and  _139
REMARK   54  A    between atoms: _139  and  _140
REMARK   55  A    between atoms: _140  and  _141
REMARK   56  A    between atoms: _141  and  _142
REMARK   57  A    between atoms: _146  and  _148
REMARK   58  A    between atoms: _148  and  _149
REMARK   59  A    between atoms: _148  and  _151
REMARK   60  A    between atoms: _151  and  _152
REMARK   61  A    between atoms: _155  and  _157
REMARK   62  A    between atoms: _157  and  _158
REMARK   63  A    between atoms: _157  and  _160
REMARK   64  A    between atoms: _160  and  _161
REMARK   65  A    between atoms: _163  and  _165
REMARK   66  A    between atoms: _165  and  _166
REMARK   67  A    between atoms: _165  and  _168
REMARK   68  A    between atoms: _168  and  _169
REMARK   69  A    between atoms: _169  and  _170
REMARK   70  A    between atoms: _170  and  _171
REMARK   71  A    between atoms: _180  and  _182
REMARK   72  A    between atoms: _182  and  _183
REMARK   73  A    between atoms: _182  and  _185
REMARK   74  A    between atoms: _185  and  _186
REMARK   75  A    between atoms: _196  and  _198
REMARK   76  A    between atoms: _198  and  _199
REMARK   77  A    between atoms: _198  and  _201
REMARK   78  A    between atoms: _201  and  _202
REMARK   79  A    between atoms: _202  and  _203
REMARK   80  A    between atoms: _208  and  _210
REMARK   81  A    between atoms: _210  and  _211
REMARK   82  A    between atoms: _214  and  _216
REMARK   83  A    between atoms: _216  and  _217
REMARK   84  A    between atoms: _216  and  _219
REMARK   85  A    between atoms: _219  and  _220
REMARK   86  A    between atoms: _228  and  _230
REMARK   87  A    between atoms: _230  and  _231
REMARK   88  A    between atoms: _230  and  _233
REMARK   89  A    between atoms: _233  and  _234
REMARK   90  A    between atoms: _237  and  _239
REMARK   91  A    between atoms: _239  and  _240
REMARK   92  A    between atoms: _239  and  _242
REMARK   93  A    between atoms: _242  and  _243
REMARK   94  A    between atoms: _248  and  _249
REMARK   95  A    between atoms: _252  and  _253
REMARK   96  A    between atoms: _258  and  _260
REMARK   97  A    between atoms: _260  and  _261
REMARK   98  A    between atoms: _260  and  _263
REMARK   99  A    between atoms: _263  and  _264
REMARK  100  A    between atoms: _274  and  _276
REMARK  101  A    between atoms: _276  and  _277
REMARK  102  A    between atoms: _276  and  _279
REMARK  103  A    between atoms: _279  and  _280
REMARK  104  A    between atoms: _280  and  _281
REMARK  105  A    between atoms: _281  and  _282
REMARK  106  A    between atoms: _291  and  _293
REMARK  107  A    between atoms: _293  and  _294
REMARK  108  A    between atoms: _293  and  _296
REMARK  109  A    between atoms: _296  and  _297
REMARK  110  A    between atoms: _302  and  _304
REMARK  111  A    between atoms: _304  and  _305
REMARK  112  A    between atoms: _304  and  _307
REMARK  113  A    between atoms: _307  and  _308
REMARK  114  A    between atoms: _308  and  _309
REMARK  115  A    between atoms: _309  and  _310
REMARK  116  A    between atoms: _320  and  _321
REMARK  117  A    between atoms: _326  and  _328
REMARK  118  A    between atoms: _339  and  _342
REMARK  119  A    between atoms: _342  and  _343
REMARK  120  A    between atoms: _348  and  _349
REMARK  121  A    between atoms: _357  and  _359
REMARK  122  A    between atoms: _359  and  _360
REMARK  123  A    between atoms: _359  and  _362
REMARK  124  A    between atoms: _362  and  _363
REMARK  125  A    between atoms: _363  and  _364
REMARK  126  A    between atoms: _369  and  _371
REMARK  127  A    between atoms: _371  and  _372
REMARK  128  A    between atoms: _371  and  _374
REMARK  129  A    between atoms: _374  and  _375
REMARK  130  A    between atoms: _380  and  _381
REMARK  131  A    between atoms: _383  and  _385
REMARK  132  A    between atoms: _385  and  _386
REMARK  133  A    between atoms: _385  and  _388
REMARK  134  A    between atoms: _390  and  _392
REMARK  135  A    between atoms: _392  and  _393
REMARK  136  A    between atoms: _392  and  _395
REMARK  137  A    between atoms: _395  and  _396
REMARK  138  A    between atoms: _399  and  _401
REMARK  139  A    between atoms: _401  and  _402
REMARK  140  A    between atoms: _401  and  _404
REMARK  141  A    between atoms: _404  and  _405
REMARK  142  A    between atoms: _405  and  _406
REMARK                            x       y       z     vdW  Elec       q    Type
REMARK                         _______ _______ _______ _____ _____    ______ ____
ROOT
ATOM      1  CA  GLU A   1      17.398  25.349  46.184  0.00  0.00    +0.134 C 
ENDROOT
BRANCH   1   2
ATOM      2  N   GLU A   1      16.382  26.208  45.620  0.00  0.00    -0.239 NA
ATOM      3  H   GLU A   1      15.958  25.916  44.716  0.00  0.00    +0.142 HD
ENDBRANCH   1   2
BRANCH   1   4
ATOM      4  C   GLU A   1      18.579  26.093  46.764  0.00  0.00    +0.224 C 
ATOM      5  O   GLU A   1      18.850  25.929  47.959  0.00  0.00    -0.287 OA
ENDBRANCH   1   4
BRANCH   1   6
ATOM      6  CB  GLU A   1      17.956  24.334  45.205  0.00  0.00    +0.037 C 
BRANCH   6   7
ATOM      7  CG  GLU A   1      17.085  23.182  44.750  0.00  0.00    +0.116 C 
BRANCH   7   8
ATOM      8  CD  GLU A   1      17.861  21.907  44.489  0.00  0.00    +0.365 C 
ATOM      9  OE2 GLU A   1      18.707  21.459  45.250  0.00  0.00    -0.246 OA
ATOM     10  OE1 GLU A   1      17.492  21.359  43.417  0.00  0.00    -0.246 OA
ENDBRANCH   7   8
ENDBRANCH   6   7
ENDBRANCH   1   6
TORSDOF 5
REMARK  Name = ../refined-set-2016/3pcg/3pcg_pocket.pdb
REMARK  142 active torsions:
REMARK  status: ('A' for Active; 'I' for Inactive)
REMARK    1  A    between atoms: _1  and  _3
REMARK    2  A    between atoms: _3  and  _4
REMARK    3  A    between atoms: _3  and  _6
REMARK    4  A    between atoms: _6  and  _7
REMARK    5  A    between atoms: _7  and  _8
REMARK    6  A    between atoms: _13  and  _15
REMARK    7  A    between atoms: _15  and  _16
REMARK    8  A    between atoms: _15  and  _18
REMARK    9  A    between atoms: _18  and  _19
REMARK   10  A    between atoms: _22  and  _24
REMARK   11  A    between atoms: _24  and  _25
REMARK   12  A    between atoms: _28  and  _30
REMARK   13  A    between atoms: _30  and  _31
REMARK   14  A    between atoms: _34  and  _35
REMARK   15  A    between atoms: _40  and  _42
REMARK   16  A    between atoms: _42  and  _43
REMARK   17  A    between atoms: _42  and  _45
REMARK   18  A    between atoms: _45  and  _46
REMARK   19  A    between atoms: _51  and  _52
REMARK   20  A    between atoms: _54  and  _56
REMARK   21  A    between atoms: _56  and  _57
REMARK   22  A    between atoms: _56  and  _59
REMARK   23  A    between atoms: _62  and  _64
REMARK   24  A    between atoms: _64  and  _65
REMARK   25  A    between atoms: _64  and  _67
REMARK   26  A    between atoms: _67  and  _68
REMARK   27  A    between atoms: _71  and  _73
REMARK   28  A    between atoms: _73  and  _74
REMARK   29  A    between atoms: _77  and  _79
REMARK   30  A    between atoms: _79  and  _80
REMARK   31  A    between atoms: _79  and  _82
REMARK   32  A    between atoms: _82  and  _83
REMARK   33  A    between atoms: _83  and  _84
REMARK   34  A    between atoms: _84  and  _85
REMARK   35  A    between atoms: _94  and  _96
REMARK   36  A    between atoms: _96  and  _97
REMARK   37  A    between atoms: _99  and  _101
REMARK   38  A    between atoms: _101  and  _102
REMARK   39  A    between atoms: _101  and  _104
REMARK   40  A    between atoms: _104  and  _105
REMARK   41  A    between atoms: _108  and  _110
REMARK   42  A    between atoms: _110  and  _111
REMARK   43  A    between atoms: _110  and  _113
REMARK   44  A    between atoms: _113  and  _114
REMARK   45  A    between atoms: _119  and  _121
REMARK   46  A    between atoms: _121  and  _122
REMARK   47  A    between atoms: _121  and  _124
REMARK   48  A    between atoms: _124  and  _125
REMARK   49  A    between atoms: _130  and  _131
REMARK   50  A    between atoms: _133  and  _135
REMARK   51  A    between atoms: _135  and  _136
REMARK   52  A    between atoms: _135  and  _138
REMARK   53  A    between atoms: _138  and  _139
REMARK   54  A    between atoms: _139  and  _140
REMARK   55  A    between atoms: _140  and  _141
REMARK   56  A    between atoms: _141  and  _142
REMARK   57  A    between atoms: _146  and  _148
REMARK   58  A    between atoms: _148  and  _149
REMARK   59  A    between atoms: _148  and  _151
REMARK   60  A    between atoms: _151  and  _152
REMARK   61  A    between atoms: _155  and  _157
REMARK   62  A    between atoms: _157  and  _158
REMARK   63  A    between atoms: _157  and  _160
REMARK   64  A    between atoms: _160  and  _161
REMARK   65  A    between atoms: _163  and  _165
REMARK   66  A    between atoms: _165  and  _166
REMARK   67  A    between atoms: _165  and  _168
REMARK   68  A    between atoms: _168  and  _169
REMARK   69  A    between atoms: _169  and  _170
REMARK   70  A    between atoms: _170  and  _171
REMARK   71  A    between atoms: _180  and  _182
REMARK   72  A    between atoms: _182  and  _183
REMARK   73  A    between atoms: _182  and  _185
REMARK   74  A    between atoms: _185  and  _186
REMARK   75  A    between atoms: _196  and  _198
REMARK   76  A    between atoms: _198  and  _199
REMARK   77  A    between atoms: _198  and  _201
REMARK   78  A    between atoms: _201  and  _202
REMARK   79  A    between atoms: _202  and  _203
REMARK   80  A    between atoms: _208  and  _210
REMARK   81  A    between atoms: _210  and  _211
REMARK   82  A    between atoms: _214  and  _216
REMARK   83  A    between atoms: _216  and  _217
REMARK   84  A    between atoms: _216  and  _219
REMARK   85  A    between atoms: _219  and  _220
REMARK   86  A    between atoms: _228  and  _230
REMARK   87  A    between atoms: _230  and  _231
REMARK   88  A    between atoms: _230  and  _233
REMARK   89  A    between atoms: _233  and  _234
REMARK   90  A    between atoms: _237  and  _239
REMARK   91  A    between atoms: _239  and  _240
REMARK   92  A    between atoms: _239  and  _242
REMARK   93  A    between atoms: _242  and  _243
REMARK   94  A    between atoms: _248  and  _249
REMARK   95  A    between atoms: _252  and  _253
REMARK   96  A    between atoms: _258  and  _260
REMARK   97  A    between atoms: _260  and  _261
REMARK   98  A    between atoms: _260  and  _263
REMARK   99  A    between atoms: _263  and  _264
REMARK  100  A    between atoms: _274  and  _276
REMARK  101  A    between atoms: _276  and  _277
REMARK  102  A    between atoms: _276  and  _279
REMARK  103  A    between atoms: _279  and  _280
REMARK  104  A    between atoms: _280  and  _281
REMARK  105  A    between atoms: _281  and  _282
REMARK  106  A    between atoms: _291  and  _293
REMARK  107  A    between atoms: _293  and  _294
REMARK  108  A    between atoms: _293  and  _296
REMARK  109  A    between atoms: _296  and  _297
REMARK  110  A    between atoms: _302  and  _304
REMARK  111  A    between atoms: _304  and  _305
REMARK  112  A    between atoms: _304  and  _307
REMARK  113  A    between atoms: _307  and  _308
REMARK  114  A    between atoms: _308  and  _309
REMARK  115  A    between atoms: _309  and  _310
REMARK  116  A    between atoms: _320  and  _321
REMARK  117  A    between atoms: _326  and  _328
REMARK  118  A    between atoms: _339  and  _342
REMARK  119  A    between atoms: _342  and  _343
REMARK  120  A    between atoms: _348  and  _349
REMARK  121  A    between atoms: _357  and  _359
REMARK  122  A    between atoms: _359  and  _360
REMARK  123  A    between atoms: _359  and  _362
REMARK  124  A    between atoms: _362  and  _363
REMARK  125  A    between atoms: _363  and  _364
REMARK  126  A    between atoms: _369  and  _371
REMARK  127  A    between atoms: _371  and  _372
REMARK  128  A    between atoms: _371  and  _374
REMARK  129  A    between atoms: _374  and  _375
REMARK  130  A    between atoms: _380  and  _381
REMARK  131  A    between atoms: _383  and  _385
REMARK  132  A    between atoms: _385  and  _386
REMARK  133  A    between atoms: _385  and  _388
REMARK  134  A    between atoms: _390  and  _392
REMARK  135  A    between atoms: _392  and  _393
REMARK  136  A    between atoms: _392  and  _395
REMARK  137  A    between atoms: _395  and  _396
REMARK  138  A    between atoms: _399  and  _401
REMARK  139  A    between atoms: _401  and  _402
REMARK  140  A    between atoms: _401  and  _404
REMARK  141  A    between atoms: _404  and  _405
REMARK  142  A    between atoms: _405  and  _406
REMARK                            x       y       z     vdW  Elec       q    Type
REMARK                         _______ _______ _______ _____ _____    ______ ____
ROOT
ATOM      1  O   HOH     1      17.080   7.394  43.965  0.00  0.00    +0.000 OA
ENDROOT
TORSDOF 0
REMARK  Name = ../refined-set-2016/3pcg/3pcg_pocket.pdb
REMARK  142 active torsions:
REMARK  status: ('A' for Active; 'I' for Inactive)
REMARK    1  A    between atoms: _1  and  _3
REMARK    2  A    between atoms: _3  and  _4
REMARK    3  A    between atoms: _3  and  _6
REMARK    4  A    between atoms: _6  and  _7
REMARK    5  A    between atoms: _7  and  _8
REMARK    6  A    between atoms: _13  and  _15
REMARK    7  A    between atoms: _15  and  _16
REMARK    8  A    between atoms: _15  and  _18
REMARK    9  A    between atoms: _18  and  _19
REMARK   10  A    between atoms: _22  and  _24
REMARK   11  A    between atoms: _24  and  _25
REMARK   12  A    between atoms: _28  and  _30
REMARK   13  A    between atoms: _30  and  _31
REMARK   14  A    between atoms: _34  and  _35
REMARK   15  A    between atoms: _40  and  _42
REMARK   16  A    between atoms: _42  and  _43
REMARK   17  A    between atoms: _42  and  _45
REMARK   18  A    between atoms: _45  and  _46
REMARK   19  A    between atoms: _51  and  _52
REMARK   20  A    between atoms: _54  and  _56
REMARK   21  A    between atoms: _56  and  _57
REMARK   22  A    between atoms: _56  and  _59
REMARK   23  A    between atoms: _62  and  _64
REMARK   24  A    between atoms: _64  and  _65
REMARK   25  A    between atoms: _64  and  _67
REMARK   26  A    between atoms: _67  and  _68
REMARK   27  A    between atoms: _71  and  _73
REMARK   28  A    between atoms: _73  and  _74
REMARK   29  A    between atoms: _77  and  _79
REMARK   30  A    between atoms: _79  and  _80
REMARK   31  A    between atoms: _79  and  _82
REMARK   32  A    between atoms: _82  and  _83
REMARK   33  A    between atoms: _83  and  _84
REMARK   34  A    between atoms: _84  and  _85
REMARK   35  A    between atoms: _94  and  _96
REMARK   36  A    between atoms: _96  and  _97
REMARK   37  A    between atoms: _99  and  _101
REMARK   38  A    between atoms: _101  and  _102
REMARK   39  A    between atoms: _101  and  _104
REMARK   40  A    between atoms: _104  and  _105
REMARK   41  A    between atoms: _108  and  _110
REMARK   42  A    between atoms: _110  and  _111
REMARK   43  A    between atoms: _110  and  _113
REMARK   44  A    between atoms: _113  and  _114
REMARK   45  A    between atoms: _119  and  _121
REMARK   46  A    between atoms: _121  and  _122
REMARK   47  A    between atoms: _121  and  _124
REMARK   48  A    between atoms: _124  and  _125
REMARK   49  A    between atoms: _130  and  _131
REMARK   50  A    between atoms: _133  and  _135
REMARK   51  A    between atoms: _135  and  _136
REMARK   52  A    between atoms: _135  and  _138
REMARK   53  A    between atoms: _138  and  _139
REMARK   54  A    between atoms: _139  and  _140
REMARK   55  A    between atoms: _140  and  _141
REMARK   56  A    between atoms: _141  and  _142
REMARK   57  A    between atoms: _146  and  _148
REMARK   58  A    between atoms: _148  and  _149
REMARK   59  A    between atoms: _148  and  _151
REMARK   60  A    between atoms: _151  and  _152
REMARK   61  A    between atoms: _155  and  _157
REMARK   62  A    between atoms: _157  and  _158
REMARK   63  A    between atoms: _157  and  _160
REMARK   64  A    between atoms: _160  and  _161
REMARK   65  A    between atoms: _163  and  _165
REMARK   66  A    between atoms: _165  and  _166
REMARK   67  A    between atoms: _165  and  _168
REMARK   68  A    between atoms: _168  and  _169
REMARK   69  A    between atoms: _169  and  _170
REMARK   70  A    between atoms: _170  and  _171
REMARK   71  A    between atoms: _180  and  _182
REMARK   72  A    between atoms: _182  and  _183
REMARK   73  A    between atoms: _182  and  _185
REMARK   74  A    between atoms: _185  and  _186
REMARK   75  A    between atoms: _196  and  _198
REMARK   76  A    between atoms: _198  and  _199
REMARK   77  A    between atoms: _198  and  _201
REMARK   78  A    between atoms: _201  and  _202
REMARK   79  A    between atoms: _202  and  _203
REMARK   80  A    between atoms: _208  and  _210
REMARK   81  A    between atoms: _210  and  _211
REMARK   82  A    between atoms: _214  and  _216
REMARK   83  A    between atoms: _216  and  _217
REMARK   84  A    between atoms: _216  and  _219
REMARK   85  A    between atoms: _219  and  _220
REMARK   86  A    between atoms: _228  and  _230
REMARK   87  A    between atoms: _230  and  _231
REMARK   88  A    between atoms: _230  and  _233
REMARK   89  A    between atoms: _233  and  _234
REMARK   90  A    between atoms: _237  and  _239
REMARK   91  A    between atoms: _239  and  _240
REMARK   92  A    between atoms: _239  and  _242
REMARK   93  A    between atoms: _242  and  _243
REMARK   94  A    between atoms: _248  and  _249
REMARK   95  A    between atoms: _252  and  _253
REMARK   96  A    between atoms: _258  and  _260
REMARK   97  A    between atoms: _260  and  _261
REMARK   98  A    between atoms: _260  and  _263
REMARK   99  A    between atoms: _263  and  _264
REMARK  100  A    between atoms: _274  and  _276
REMARK  101  A    between atoms: _276  and  _277
REMARK  102  A    between atoms: _276  and  _279
REMARK  103  A    between atoms: _279  and  _280
REMARK  104  A    between atoms: _280  and  _281
REMARK  105  A    between atoms: _281  and  _282
REMARK  106  A    between atoms: _291  and  _293
REMARK  107  A    between atoms: _293  and  _294
REMARK  108  A    between atoms: _293  and  _296
REMARK  109  A    between atoms: _296  and  _297
REMARK  110  A    between atoms: _302  and  _304
REMARK  111  A    between atoms: _304  and  _305
REMARK  112  A    between atoms: _304  and  _307
REMARK  113  A    between atoms: _307  and  _308
REMARK  114  A    between atoms: _308  and  _309
REMARK  115  A    between atoms: _309  and  _310
REMARK  116  A    between atoms: _320  and  _321
REMARK  117  A    between atoms: _326  and  _328
REMARK  118  A    between atoms: _339  and  _342
REMARK  119  A    between atoms: _342  and  _343
REMARK  120  A    between atoms: _348  and  _349
REMARK  121  A    between atoms: _357  and  _359
REMARK  122  A    between atoms: _359  and  _360
REMARK  123  A    between atoms: _359  and  _362
REMARK  124  A    between atoms: _362  and  _363
REMARK  125  A    between atoms: _363  and  _364
REMARK  126  A    between atoms: _369  and  _371
REMARK  127  A    between atoms: _371  and  _372
REMARK  128  A    between atoms: _371  and  _374
REMARK  129  A    between atoms: _374  and  _375
REMARK  130  A    between atoms: _380  and  _381
REMARK  131  A    between atoms: _383  and  _385
REMARK  132  A    between atoms: _385  and  _386
REMARK  133  A    between atoms: _385  and  _388
REMARK  134  A    between atoms: _390  and  _392
REMARK  135  A    between atoms: _392  and  _393
REMARK  136  A    between atoms: _392  and  _395
REMARK  137  A    between atoms: _395  and  _396
REMARK  138  A    between atoms: _399  and  _401
REMARK  139  A    between atoms: _401  and  _402
REMARK  140  A    between atoms: _401  and  _404
REMARK  141  A    between atoms: _404  and  _405
REMARK  142  A    between atoms: _405  and  _406
REMARK                            x       y       z     vdW  Elec       q    Type
REMARK                         _______ _______ _______ _____ _____    ______ ____
ROOT
ATOM      1  O   HOH     1      21.995  11.813  44.226  0.00  0.00    +0.000 OA
ENDROOT
TORSDOF 0
REMARK  Name = ../refined-set-2016/3pcg/3pcg_pocket.pdb
REMARK  142 active torsions:
REMARK  status: ('A' for Active; 'I' for Inactive)
REMARK    1  A    between atoms: _1  and  _3
REMARK    2  A    between atoms: _3  and  _4
REMARK    3  A    between atoms: _3  and  _6
REMARK    4  A    between atoms: _6  and  _7
REMARK    5  A    between atoms: _7  and  _8
REMARK    6  A    between atoms: _13  and  _15
REMARK    7  A    between atoms: _15  and  _16
REMARK    8  A    between atoms: _15  and  _18
REMARK    9  A    between atoms: _18  and  _19
REMARK   10  A    between atoms: _22  and  _24
REMARK   11  A    between atoms: _24  and  _25
REMARK   12  A    between atoms: _28  and  _30
REMARK   13  A    between atoms: _30  and  _31
REMARK   14  A    between atoms: _34  and  _35
REMARK   15  A    between atoms: _40  and  _42
REMARK   16  A    between atoms: _42  and  _43
REMARK   17  A    between atoms: _42  and  _45
REMARK   18  A    between atoms: _45  and  _46
REMARK   19  A    between atoms: _51  and  _52
REMARK   20  A    between atoms: _54  and  _56
REMARK   21  A    between atoms: _56  and  _57
REMARK   22  A    between atoms: _56  and  _59
REMARK   23  A    between atoms: _62  and  _64
REMARK   24  A    between atoms: _64  and  _65
REMARK   25  A    between atoms: _64  and  _67
REMARK   26  A    between atoms: _67  and  _68
REMARK   27  A    between atoms: _71  and  _73
REMARK   28  A    between atoms: _73  and  _74
REMARK   29  A    between atoms: _77  and  _79
REMARK   30  A    between atoms: _79  and  _80
REMARK   31  A    between atoms: _79  and  _82
REMARK   32  A    between atoms: _82  and  _83
REMARK   33  A    between atoms: _83  and  _84
REMARK   34  A    between atoms: _84  and  _85
REMARK   35  A    between atoms: _94  and  _96
REMARK   36  A    between atoms: _96  and  _97
REMARK   37  A    between atoms: _99  and  _101
REMARK   38  A    between atoms: _101  and  _102
REMARK   39  A    between atoms: _101  and  _104
REMARK   40  A    between atoms: _104  and  _105
REMARK   41  A    between atoms: _108  and  _110
REMARK   42  A    between atoms: _110  and  _111
REMARK   43  A    between atoms: _110  and  _113
REMARK   44  A    between atoms: _113  and  _114
REMARK   45  A    between atoms: _119  and  _121
REMARK   46  A    between atoms: _121  and  _122
REMARK   47  A    between atoms: _121  and  _124
REMARK   48  A    between atoms: _124  and  _125
REMARK   49  A    between atoms: _130  and  _131
REMARK   50  A    between atoms: _133  and  _135
REMARK   51  A    between atoms: _135  and  _136
REMARK   52  A    between atoms: _135  and  _138
REMARK   53  A    between atoms: _138  and  _139
REMARK   54  A    between atoms: _139  and  _140
REMARK   55  A    between atoms: _140  and  _141
REMARK   56  A    between atoms: _141  and  _142
REMARK   57  A    between atoms: _146  and  _148
REMARK   58  A    between atoms: _148  and  _149
REMARK   59  A    between atoms: _148  and  _151
REMARK   60  A    between atoms: _151  and  _152
REMARK   61  A    between atoms: _155  and  _157
REMARK   62  A    between atoms: _157  and  _158
REMARK   63  A    between atoms: _157  and  _160
REMARK   64  A    between atoms: _160  and  _161
REMARK   65  A    between atoms: _163  and  _165
REMARK   66  A    between atoms: _165  and  _166
REMARK   67  A    between atoms: _165  and  _168
REMARK   68  A    between atoms: _168  and  _169
REMARK   69  A    between atoms: _169  and  _170
REMARK   70  A    between atoms: _170  and  _171
REMARK   71  A    between atoms: _180  and  _182
REMARK   72  A    between atoms: _182  and  _183
REMARK   73  A    between atoms: _182  and  _185
REMARK   74  A    between atoms: _185  and  _186
REMARK   75  A    between atoms: _196  and  _198
REMARK   76  A    between atoms: _198  and  _199
REMARK   77  A    between atoms: _198  and  _201
REMARK   78  A    between atoms: _201  and  _202
REMARK   79  A    between atoms: _202  and  _203
REMARK   80  A    between atoms: _208  and  _210
REMARK   81  A    between atoms: _210  and  _211
REMARK   82  A    between atoms: _214  and  _216
REMARK   83  A    between atoms: _216  and  _217
REMARK   84  A    between atoms: _216  and  _219
REMARK   85  A    between atoms: _219  and  _220
REMARK   86  A    between atoms: _228  and  _230
REMARK   87  A    between atoms: _230  and  _231
REMARK   88  A    between atoms: _230  and  _233
REMARK   89  A    between atoms: _233  and  _234
REMARK   90  A    between atoms: _237  and  _239
REMARK   91  A    between atoms: _239  and  _240
REMARK   92  A    between atoms: _239  and  _242
REMARK   93  A    between atoms: _242  and  _243
REMARK   94  A    between atoms: _248  and  _249
REMARK   95  A    between atoms: _252  and  _253
REMARK   96  A    between atoms: _258  and  _260
REMARK   97  A    between atoms: _260  and  _261
REMARK   98  A    between atoms: _260  and  _263
REMARK   99  A    between atoms: _263  and  _264
REMARK  100  A    between atoms: _274  and  _276
REMARK  101  A    between atoms: _276  and  _277
REMARK  102  A    between atoms: _276  and  _279
REMARK  103  A    between atoms: _279  and  _280
REMARK  104  A    between atoms: _280  and  _281
REMARK  105  A    between atoms: _281  and  _282
REMARK  106  A    between atoms: _291  and  _293
REMARK  107  A    between atoms: _293  and  _294
REMARK  108  A    between atoms: _293  and  _296
REMARK  109  A    between atoms: _296  and  _297
REMARK  110  A    between atoms: _302  and  _304
REMARK  111  A    between atoms: _304  and  _305
REMARK  112  A    between atoms: _304  and  _307
REMARK  113  A    between atoms: _307  and  _308
REMARK  114  A    between atoms: _308  and  _309
REMARK  115  A    between atoms: _309  and  _310
REMARK  116  A    between atoms: _320  and  _321
REMARK  117  A    between atoms: _326  and  _328
REMARK  118  A    between atoms: _339  and  _342
REMARK  119  A    between atoms: _342  and  _343
REMARK  120  A    between atoms: _348  and  _349
REMARK  121  A    between atoms: _357  and  _359
REMARK  122  A    between atoms: _359  and  _360
REMARK  123  A    between atoms: _359  and  _362
REMARK  124  A    between atoms: _362  and  _363
REMARK  125  A    between atoms: _363  and  _364
REMARK  126  A    between atoms: _369  and  _371
REMARK  127  A    between atoms: _371  and  _372
REMARK  128  A    between atoms: _371  and  _374
REMARK  129  A    between atoms: _374  and  _375
REMARK  130  A    between atoms: _380  and  _381
REMARK  131  A    between atoms: _383  and  _385
REMARK  132  A    between atoms: _385  and  _386
REMARK  133  A    between atoms: _385  and  _388
REMARK  134  A    between atoms: _390  and  _392
REMARK  135  A    between atoms: _392  and  _393
REMARK  136  A    between atoms: _392  and  _395
REMARK  137  A    between atoms: _395  and  _396
REMARK  138  A    between atoms: _399  and  _401
REMARK  139  A    between atoms: _401  and  _402
REMARK  140  A    between atoms: _401  and  _404
REMARK  141  A    between atoms: _404  and  _405
REMARK  142  A    between atoms: _405  and  _406
REMARK                            x       y       z     vdW  Elec       q    Type
REMARK                         _______ _______ _______ _____ _____    ______ ____
ROOT
ATOM      1  O   HOH     1      18.845   9.627  33.638  0.00  0.00    +0.000 OA
ENDROOT
TORSDOF 0
REMARK  Name = ../refined-set-2016/3pcg/3pcg_pocket.pdb
REMARK  142 active torsions:
REMARK  status: ('A' for Active; 'I' for Inactive)
REMARK    1  A    between atoms: _1  and  _3
REMARK    2  A    between atoms: _3  and  _4
REMARK    3  A    between atoms: _3  and  _6
REMARK    4  A    between atoms: _6  and  _7
REMARK    5  A    between atoms: _7  and  _8
REMARK    6  A    between atoms: _13  and  _15
REMARK    7  A    between atoms: _15  and  _16
REMARK    8  A    between atoms: _15  and  _18
REMARK    9  A    between atoms: _18  and  _19
REMARK   10  A    between atoms: _22  and  _24
REMARK   11  A    between atoms: _24  and  _25
REMARK   12  A    between atoms: _28  and  _30
REMARK   13  A    between atoms: _30  and  _31
REMARK   14  A    between atoms: _34  and  _35
REMARK   15  A    between atoms: _40  and  _42
REMARK   16  A    between atoms: _42  and  _43
REMARK   17  A    between atoms: _42  and  _45
REMARK   18  A    between atoms: _45  and  _46
REMARK   19  A    between atoms: _51  and  _52
REMARK   20  A    between atoms: _54  and  _56
REMARK   21  A    between atoms: _56  and  _57
REMARK   22  A    between atoms: _56  and  _59
REMARK   23  A    between atoms: _62  and  _64
REMARK   24  A    between atoms: _64  and  _65
REMARK   25  A    between atoms: _64  and  _67
REMARK   26  A    between atoms: _67  and  _68
REMARK   27  A    between atoms: _71  and  _73
REMARK   28  A    between atoms: _73  and  _74
REMARK   29  A    between atoms: _77  and  _79
REMARK   30  A    between atoms: _79  and  _80
REMARK   31  A    between atoms: _79  and  _82
REMARK   32  A    between atoms: _82  and  _83
REMARK   33  A    between atoms: _83  and  _84
REMARK   34  A    between atoms: _84  and  _85
REMARK   35  A    between atoms: _94  and  _96
REMARK   36  A    between atoms: _96  and  _97
REMARK   37  A    between atoms: _99  and  _101
REMARK   38  A    between atoms: _101  and  _102
REMARK   39  A    between atoms: _101  and  _104
REMARK   40  A    between atoms: _104  and  _105
REMARK   41  A    between atoms: _108  and  _110
REMARK   42  A    between atoms: _110  and  _111
REMARK   43  A    between atoms: _110  and  _113
REMARK   44  A    between atoms: _113  and  _114
REMARK   45  A    between atoms: _119  and  _121
REMARK   46  A    between atoms: _121  and  _122
REMARK   47  A    between atoms: _121  and  _124
REMARK   48  A    between atoms: _124  and  _125
REMARK   49  A    between atoms: _130  and  _131
REMARK   50  A    between atoms: _133  and  _135
REMARK   51  A    between atoms: _135  and  _136
REMARK   52  A    between atoms: _135  and  _138
REMARK   53  A    between atoms: _138  and  _139
REMARK   54  A    between atoms: _139  and  _140
REMARK   55  A    between atoms: _140  and  _141
REMARK   56  A    between atoms: _141  and  _142
REMARK   57  A    between atoms: _146  and  _148
REMARK   58  A    between atoms: _148  and  _149
REMARK   59  A    between atoms: _148  and  _151
REMARK   60  A    between atoms: _151  and  _152
REMARK   61  A    between atoms: _155  and  _157
REMARK   62  A    between atoms: _157  and  _158
REMARK   63  A    between atoms: _157  and  _160
REMARK   64  A    between atoms: _160  and  _161
REMARK   65  A    between atoms: _163  and  _165
REMARK   66  A    between atoms: _165  and  _166
REMARK   67  A    between atoms: _165  and  _168
REMARK   68  A    between atoms: _168  and  _169
REMARK   69  A    between atoms: _169  and  _170
REMARK   70  A    between atoms: _170  and  _171
REMARK   71  A    between atoms: _180  and  _182
REMARK   72  A    between atoms: _182  and  _183
REMARK   73  A    between atoms: _182  and  _185
REMARK   74  A    between atoms: _185  and  _186
REMARK   75  A    between atoms: _196  and  _198
REMARK   76  A    between atoms: _198  and  _199
REMARK   77  A    between atoms: _198  and  _201
REMARK   78  A    between atoms: _201  and  _202
REMARK   79  A    between atoms: _202  and  _203
REMARK   80  A    between atoms: _208  and  _210
REMARK   81  A    between atoms: _210  and  _211
REMARK   82  A    between atoms: _214  and  _216
REMARK   83  A    between atoms: _216  and  _217
REMARK   84  A    between atoms: _216  and  _219
REMARK   85  A    between atoms: _219  and  _220
REMARK   86  A    between atoms: _228  and  _230
REMARK   87  A    between atoms: _230  and  _231
REMARK   88  A    between atoms: _230  and  _233
REMARK   89  A    between atoms: _233  and  _234
REMARK   90  A    between atoms: _237  and  _239
REMARK   91  A    between atoms: _239  and  _240
REMARK   92  A    between atoms: _239  and  _242
REMARK   93  A    between atoms: _242  and  _243
REMARK   94  A    between atoms: _248  and  _249
REMARK   95  A    between atoms: _252  and  _253
REMARK   96  A    between atoms: _258  and  _260
REMARK   97  A    between atoms: _260  and  _261
REMARK   98  A    between atoms: _260  and  _263
REMARK   99  A    between atoms: _263  and  _264
REMARK  100  A    between atoms: _274  and  _276
REMARK  101  A    between atoms: _276  and  _277
REMARK  102  A    between atoms: _276  and  _279
REMARK  103  A    between atoms: _279  and  _280
REMARK  104  A    between atoms: _280  and  _281
REMARK  105  A    between atoms: _281  and  _282
REMARK  106  A    between atoms: _291  and  _293
REMARK  107  A    between atoms: _293  and  _294
REMARK  108  A    between atoms: _293  and  _296
REMARK  109  A    between atoms: _296  and  _297
REMARK  110  A    between atoms: _302  and  _304
REMARK  111  A    between atoms: _304  and  _305
REMARK  112  A    between atoms: _304  and  _307
REMARK  113  A    between atoms: _307  and  _308
REMARK  114  A    between atoms: _308  and  _309
REMARK  115  A    between atoms: _309  and  _310
REMARK  116  A    between atoms: _320  and  _321
REMARK  117  A    between atoms: _326  and  _328
REMARK  118  A    between atoms: _339  and  _342
REMARK  119  A    between atoms: _342  and  _343
REMARK  120  A    between atoms: _348  and  _349
REMARK  121  A    between atoms: _357  and  _359
REMARK  122  A    between atoms: _359  and  _360
REMARK  123  A    between atoms: _359  and  _362
REMARK  124  A    between atoms: _362  and  _363
REMARK  125  A    between atoms: _363  and  _364
REMARK  126  A    between atoms: _369  and  _371
REMARK  127  A    between atoms: _371  and  _372
REMARK  128  A    between atoms: _371  and  _374
REMARK  129  A    between atoms: _374  and  _375
REMARK  130  A    between atoms: _380  and  _381
REMARK  131  A    between atoms: _383  and  _385
REMARK  132  A    between atoms: _385  and  _386
REMARK  133  A    between atoms: _385  and  _388
REMARK  134  A    between atoms: _390  and  _392
REMARK  135  A    between atoms: _392  and  _393
REMARK  136  A    between atoms: _392  and  _395
REMARK  137  A    between atoms: _395  and  _396
REMARK  138  A    between atoms: _399  and  _401
REMARK  139  A    between atoms: _401  and  _402
REMARK  140  A    between atoms: _401  and  _404
REMARK  141  A    between atoms: _404  and  _405
REMARK  142  A    between atoms: _405  and  _406
REMARK                            x       y       z     vdW  Elec       q    Type
REMARK                         _______ _______ _______ _____ _____    ______ ____
ROOT
ATOM      1  O   HOH     1      19.407  15.134  47.240  0.00  0.00    +0.000 OA
ENDROOT
TORSDOF 0
REMARK  Name = ../refined-set-2016/3pcg/3pcg_pocket.pdb
REMARK  142 active torsions:
REMARK  status: ('A' for Active; 'I' for Inactive)
REMARK    1  A    between atoms: _1  and  _3
REMARK    2  A    between atoms: _3  and  _4
REMARK    3  A    between atoms: _3  and  _6
REMARK    4  A    between atoms: _6  and  _7
REMARK    5  A    between atoms: _7  and  _8
REMARK    6  A    between atoms: _13  and  _15
REMARK    7  A    between atoms: _15  and  _16
REMARK    8  A    between atoms: _15  and  _18
REMARK    9  A    between atoms: _18  and  _19
REMARK   10  A    between atoms: _22  and  _24
REMARK   11  A    between atoms: _24  and  _25
REMARK   12  A    between atoms: _28  and  _30
REMARK   13  A    between atoms: _30  and  _31
REMARK   14  A    between atoms: _34  and  _35
REMARK   15  A    between atoms: _40  and  _42
REMARK   16  A    between atoms: _42  and  _43
REMARK   17  A    between atoms: _42  and  _45
REMARK   18  A    between atoms: _45  and  _46
REMARK   19  A    between atoms: _51  and  _52
REMARK   20  A    between atoms: _54  and  _56
REMARK   21  A    between atoms: _56  and  _57
REMARK   22  A    between atoms: _56  and  _59
REMARK   23  A    between atoms: _62  and  _64
REMARK   24  A    between atoms: _64  and  _65
REMARK   25  A    between atoms: _64  and  _67
REMARK   26  A    between atoms: _67  and  _68
REMARK   27  A    between atoms: _71  and  _73
REMARK   28  A    between atoms: _73  and  _74
REMARK   29  A    between atoms: _77  and  _79
REMARK   30  A    between atoms: _79  and  _80
REMARK   31  A    between atoms: _79  and  _82
REMARK   32  A    between atoms: _82  and  _83
REMARK   33  A    between atoms: _83  and  _84
REMARK   34  A    between atoms: _84  and  _85
REMARK   35  A    between atoms: _94  and  _96
REMARK   36  A    between atoms: _96  and  _97
REMARK   37  A    between atoms: _99  and  _101
REMARK   38  A    between atoms: _101  and  _102
REMARK   39  A    between atoms: _101  and  _104
REMARK   40  A    between atoms: _104  and  _105
REMARK   41  A    between atoms: _108  and  _110
REMARK   42  A    between atoms: _110  and  _111
REMARK   43  A    between atoms: _110  and  _113
REMARK   44  A    between atoms: _113  and  _114
REMARK   45  A    between atoms: _119  and  _121
REMARK   46  A    between atoms: _121  and  _122
REMARK   47  A    between atoms: _121  and  _124
REMARK   48  A    between atoms: _124  and  _125
REMARK   49  A    between atoms: _130  and  _131
REMARK   50  A    between atoms: _133  and  _135
REMARK   51  A    between atoms: _135  and  _136
REMARK   52  A    between atoms: _135  and  _138
REMARK   53  A    between atoms: _138  and  _139
REMARK   54  A    between atoms: _139  and  _140
REMARK   55  A    between atoms: _140  and  _141
REMARK   56  A    between atoms: _141  and  _142
REMARK   57  A    between atoms: _146  and  _148
REMARK   58  A    between atoms: _148  and  _149
REMARK   59  A    between atoms: _148  and  _151
REMARK   60  A    between atoms: _151  and  _152
REMARK   61  A    between atoms: _155  and  _157
REMARK   62  A    between atoms: _157  and  _158
REMARK   63  A    between atoms: _157  and  _160
REMARK   64  A    between atoms: _160  and  _161
REMARK   65  A    between atoms: _163  and  _165
REMARK   66  A    between atoms: _165  and  _166
REMARK   67  A    between atoms: _165  and  _168
REMARK   68  A    between atoms: _168  and  _169
REMARK   69  A    between atoms: _169  and  _170
REMARK   70  A    between atoms: _170  and  _171
REMARK   71  A    between atoms: _180  and  _182
REMARK   72  A    between atoms: _182  and  _183
REMARK   73  A    between atoms: _182  and  _185
REMARK   74  A    between atoms: _185  and  _186
REMARK   75  A    between atoms: _196  and  _198
REMARK   76  A    between atoms: _198  and  _199
REMARK   77  A    between atoms: _198  and  _201
REMARK   78  A    between atoms: _201  and  _202
REMARK   79  A    between atoms: _202  and  _203
REMARK   80  A    between atoms: _208  and  _210
REMARK   81  A    between atoms: _210  and  _211
REMARK   82  A    between atoms: _214  and  _216
REMARK   83  A    between atoms: _216  and  _217
REMARK   84  A    between atoms: _216  and  _219
REMARK   85  A    between atoms: _219  and  _220
REMARK   86  A    between atoms: _228  and  _230
REMARK   87  A    between atoms: _230  and  _231
REMARK   88  A    between atoms: _230  and  _233
REMARK   89  A    between atoms: _233  and  _234
REMARK   90  A    between atoms: _237  and  _239
REMARK   91  A    between atoms: _239  and  _240
REMARK   92  A    between atoms: _239  and  _242
REMARK   93  A    between atoms: _242  and  _243
REMARK   94  A    between atoms: _248  and  _249
REMARK   95  A    between atoms: _252  and  _253
REMARK   96  A    between atoms: _258  and  _260
REMARK   97  A    between atoms: _260  and  _261
REMARK   98  A    between atoms: _260  and  _263
REMARK   99  A    between atoms: _263  and  _264
REMARK  100  A    between atoms: _274  and  _276
REMARK  101  A    between atoms: _276  and  _277
REMARK  102  A    between atoms: _276  and  _279
REMARK  103  A    between atoms: _279  and  _280
REMARK  104  A    between atoms: _280  and  _281
REMARK  105  A    between atoms: _281  and  _282
REMARK  106  A    between atoms: _291  and  _293
REMARK  107  A    between atoms: _293  and  _294
REMARK  108  A    between atoms: _293  and  _296
REMARK  109  A    between atoms: _296  and  _297
REMARK  110  A    between atoms: _302  and  _304
REMARK  111  A    between atoms: _304  and  _305
REMARK  112  A    between atoms: _304  and  _307
REMARK  113  A    between atoms: _307  and  _308
REMARK  114  A    between atoms: _308  and  _309
REMARK  115  A    between atoms: _309  and  _310
REMARK  116  A    between atoms: _320  and  _321
REMARK  117  A    between atoms: _326  and  _328
REMARK  118  A    between atoms: _339  and  _342
REMARK  119  A    between atoms: _342  and  _343
REMARK  120  A    between atoms: _348  and  _349
REMARK  121  A    between atoms: _357  and  _359
REMARK  122  A    between atoms: _359  and  _360
REMARK  123  A    between atoms: _359  and  _362
REMARK  124  A    between atoms: _362  and  _363
REMARK  125  A    between atoms: _363  and  _364
REMARK  126  A    between atoms: _369  and  _371
REMARK  127  A    between atoms: _371  and  _372
REMARK  128  A    between atoms: _371  and  _374
REMARK  129  A    between atoms: _374  and  _375
REMARK  130  A    between atoms: _380  and  _381
REMARK  131  A    between atoms: _383  and  _385
REMARK  132  A    between atoms: _385  and  _386
REMARK  133  A    between atoms: _385  and  _388
REMARK  134  A    between atoms: _390  and  _392
REMARK  135  A    between atoms: _392  and  _393
REMARK  136  A    between atoms: _392  and  _395
REMARK  137  A    between atoms: _395  and  _396
REMARK  138  A    between atoms: _399  and  _401
REMARK  139  A    between atoms: _401  and  _402
REMARK  140  A    between atoms: _401  and  _404
REMARK  141  A    between atoms: _404  and  _405
REMARK  142  A    between atoms: _405  and  _406
REMARK                            x       y       z     vdW  Elec       q    Type
REMARK                         _______ _______ _______ _____ _____    ______ ____
ROOT
ATOM      1  O   HOH     1      18.898   4.453  39.207  0.00  0.00    +0.000 OA
ENDROOT
TORSDOF 0
REMARK  Name = ../refined-set-2016/3pcg/3pcg_pocket.pdb
REMARK  142 active torsions:
REMARK  status: ('A' for Active; 'I' for Inactive)
REMARK    1  A    between atoms: _1  and  _3
REMARK    2  A    between atoms: _3  and  _4
REMARK    3  A    between atoms: _3  and  _6
REMARK    4  A    between atoms: _6  and  _7
REMARK    5  A    between atoms: _7  and  _8
REMARK    6  A    between atoms: _13  and  _15
REMARK    7  A    between atoms: _15  and  _16
REMARK    8  A    between atoms: _15  and  _18
REMARK    9  A    between atoms: _18  and  _19
REMARK   10  A    between atoms: _22  and  _24
REMARK   11  A    between atoms: _24  and  _25
REMARK   12  A    between atoms: _28  and  _30
REMARK   13  A    between atoms: _30  and  _31
REMARK   14  A    between atoms: _34  and  _35
REMARK   15  A    between atoms: _40  and  _42
REMARK   16  A    between atoms: _42  and  _43
REMARK   17  A    between atoms: _42  and  _45
REMARK   18  A    between atoms: _45  and  _46
REMARK   19  A    between atoms: _51  and  _52
REMARK   20  A    between atoms: _54  and  _56
REMARK   21  A    between atoms: _56  and  _57
REMARK   22  A    between atoms: _56  and  _59
REMARK   23  A    between atoms: _62  and  _64
REMARK   24  A    between atoms: _64  and  _65
REMARK   25  A    between atoms: _64  and  _67
REMARK   26  A    between atoms: _67  and  _68
REMARK   27  A    between atoms: _71  and  _73
REMARK   28  A    between atoms: _73  and  _74
REMARK   29  A    between atoms: _77  and  _79
REMARK   30  A    between atoms: _79  and  _80
REMARK   31  A    between atoms: _79  and  _82
REMARK   32  A    between atoms: _82  and  _83
REMARK   33  A    between atoms: _83  and  _84
REMARK   34  A    between atoms: _84  and  _85
REMARK   35  A    between atoms: _94  and  _96
REMARK   36  A    between atoms: _96  and  _97
REMARK   37  A    between atoms: _99  and  _101
REMARK   38  A    between atoms: _101  and  _102
REMARK   39  A    between atoms: _101  and  _104
REMARK   40  A    between atoms: _104  and  _105
REMARK   41  A    between atoms: _108  and  _110
REMARK   42  A    between atoms: _110  and  _111
REMARK   43  A    between atoms: _110  and  _113
REMARK   44  A    between atoms: _113  and  _114
REMARK   45  A    between atoms: _119  and  _121
REMARK   46  A    between atoms: _121  and  _122
REMARK   47  A    between atoms: _121  and  _124
REMARK   48  A    between atoms: _124  and  _125
REMARK   49  A    between atoms: _130  and  _131
REMARK   50  A    between atoms: _133  and  _135
REMARK   51  A    between atoms: _135  and  _136
REMARK   52  A    between atoms: _135  and  _138
REMARK   53  A    between atoms: _138  and  _139
REMARK   54  A    between atoms: _139  and  _140
REMARK   55  A    between atoms: _140  and  _141
REMARK   56  A    between atoms: _141  and  _142
REMARK   57  A    between atoms: _146  and  _148
REMARK   58  A    between atoms: _148  and  _149
REMARK   59  A    between atoms: _148  and  _151
REMARK   60  A    between atoms: _151  and  _152
REMARK   61  A    between atoms: _155  and  _157
REMARK   62  A    between atoms: _157  and  _158
REMARK   63  A    between atoms: _157  and  _160
REMARK   64  A    between atoms: _160  and  _161
REMARK   65  A    between atoms: _163  and  _165
REMARK   66  A    between atoms: _165  and  _166
REMARK   67  A    between atoms: _165  and  _168
REMARK   68  A    between atoms: _168  and  _169
REMARK   69  A    between atoms: _169  and  _170
REMARK   70  A    between atoms: _170  and  _171
REMARK   71  A    between atoms: _180  and  _182
REMARK   72  A    between atoms: _182  and  _183
REMARK   73  A    between atoms: _182  and  _185
REMARK   74  A    between atoms: _185  and  _186
REMARK   75  A    between atoms: _196  and  _198
REMARK   76  A    between atoms: _198  and  _199
REMARK   77  A    between atoms: _198  and  _201
REMARK   78  A    between atoms: _201  and  _202
REMARK   79  A    between atoms: _202  and  _203
REMARK   80  A    between atoms: _208  and  _210
REMARK   81  A    between atoms: _210  and  _211
REMARK   82  A    between atoms: _214  and  _216
REMARK   83  A    between atoms: _216  and  _217
REMARK   84  A    between atoms: _216  and  _219
REMARK   85  A    between atoms: _219  and  _220
REMARK   86  A    between atoms: _228  and  _230
REMARK   87  A    between atoms: _230  and  _231
REMARK   88  A    between atoms: _230  and  _233
REMARK   89  A    between atoms: _233  and  _234
REMARK   90  A    between atoms: _237  and  _239
REMARK   91  A    between atoms: _239  and  _240
REMARK   92  A    between atoms: _239  and  _242
REMARK   93  A    between atoms: _242  and  _243
REMARK   94  A    between atoms: _248  and  _249
REMARK   95  A    between atoms: _252  and  _253
REMARK   96  A    between atoms: _258  and  _260
REMARK   97  A    between atoms: _260  and  _261
REMARK   98  A    between atoms: _260  and  _263
REMARK   99  A    between atoms: _263  and  _264
REMARK  100  A    between atoms: _274  and  _276
REMARK  101  A    between atoms: _276  and  _277
REMARK  102  A    between atoms: _276  and  _279
REMARK  103  A    between atoms: _279  and  _280
REMARK  104  A    between atoms: _280  and  _281
REMARK  105  A    between atoms: _281  and  _282
REMARK  106  A    between atoms: _291  and  _293
REMARK  107  A    between atoms: _293  and  _294
REMARK  108  A    between atoms: _293  and  _296
REMARK  109  A    between atoms: _296  and  _297
REMARK  110  A    between atoms: _302  and  _304
REMARK  111  A    between atoms: _304  and  _305
REMARK  112  A    between atoms: _304  and  _307
REMARK  113  A    between atoms: _307  and  _308
REMARK  114  A    between atoms: _308  and  _309
REMARK  115  A    between atoms: _309  and  _310
REMARK  116  A    between atoms: _320  and  _321
REMARK  117  A    between atoms: _326  and  _328
REMARK  118  A    between atoms: _339  and  _342
REMARK  119  A    between atoms: _342  and  _343
REMARK  120  A    between atoms: _348  and  _349
REMARK  121  A    between atoms: _357  and  _359
REMARK  122  A    between atoms: _359  and  _360
REMARK  123  A    between atoms: _359  and  _362
REMARK  124  A    between atoms: _362  and  _363
REMARK  125  A    between atoms: _363  and  _364
REMARK  126  A    between atoms: _369  and  _371
REMARK  127  A    between atoms: _371  and  _372
REMARK  128  A    between atoms: _371  and  _374
REMARK  129  A    between atoms: _374  and  _375
REMARK  130  A    between atoms: _380  and  _381
REMARK  131  A    between atoms: _383  and  _385
REMARK  132  A    between atoms: _385  and  _386
REMARK  133  A    between atoms: _385  and  _388
REMARK  134  A    between atoms: _390  and  _392
REMARK  135  A    between atoms: _392  and  _393
REMARK  136  A    between atoms: _392  and  _395
REMARK  137  A    between atoms: _395  and  _396
REMARK  138  A    between atoms: _399  and  _401
REMARK  139  A    between atoms: _401  and  _402
REMARK  140  A    between atoms: _401  and  _404
REMARK  141  A    between atoms: _404  and  _405
REMARK  142  A    between atoms: _405  and  _406
REMARK                            x       y       z     vdW  Elec       q    Type
REMARK                         _______ _______ _______ _____ _____    ______ ____
ROOT
ATOM      1  O   HOH     1       8.891  12.612  35.457  0.00  0.00    +0.000 OA
ENDROOT
TORSDOF 0
REMARK  Name = ../refined-set-2016/3pcg/3pcg_pocket.pdb
REMARK  142 active torsions:
REMARK  status: ('A' for Active; 'I' for Inactive)
REMARK    1  A    between atoms: _1  and  _3
REMARK    2  A    between atoms: _3  and  _4
REMARK    3  A    between atoms: _3  and  _6
REMARK    4  A    between atoms: _6  and  _7
REMARK    5  A    between atoms: _7  and  _8
REMARK    6  A    between atoms: _13  and  _15
REMARK    7  A    between atoms: _15  and  _16
REMARK    8  A    between atoms: _15  and  _18
REMARK    9  A    between atoms: _18  and  _19
REMARK   10  A    between atoms: _22  and  _24
REMARK   11  A    between atoms: _24  and  _25
REMARK   12  A    between atoms: _28  and  _30
REMARK   13  A    between atoms: _30  and  _31
REMARK   14  A    between atoms: _34  and  _35
REMARK   15  A    between atoms: _40  and  _42
REMARK   16  A    between atoms: _42  and  _43
REMARK   17  A    between atoms: _42  and  _45
REMARK   18  A    between atoms: _45  and  _46
REMARK   19  A    between atoms: _51  and  _52
REMARK   20  A    between atoms: _54  and  _56
REMARK   21  A    between atoms: _56  and  _57
REMARK   22  A    between atoms: _56  and  _59
REMARK   23  A    between atoms: _62  and  _64
REMARK   24  A    between atoms: _64  and  _65
REMARK   25  A    between atoms: _64  and  _67
REMARK   26  A    between atoms: _67  and  _68
REMARK   27  A    between atoms: _71  and  _73
REMARK   28  A    between atoms: _73  and  _74
REMARK   29  A    between atoms: _77  and  _79
REMARK   30  A    between atoms: _79  and  _80
REMARK   31  A    between atoms: _79  and  _82
REMARK   32  A    between atoms: _82  and  _83
REMARK   33  A    between atoms: _83  and  _84
REMARK   34  A    between atoms: _84  and  _85
REMARK   35  A    between atoms: _94  and  _96
REMARK   36  A    between atoms: _96  and  _97
REMARK   37  A    between atoms: _99  and  _101
REMARK   38  A    between atoms: _101  and  _102
REMARK   39  A    between atoms: _101  and  _104
REMARK   40  A    between atoms: _104  and  _105
REMARK   41  A    between atoms: _108  and  _110
REMARK   42  A    between atoms: _110  and  _111
REMARK   43  A    between atoms: _110  and  _113
REMARK   44  A    between atoms: _113  and  _114
REMARK   45  A    between atoms: _119  and  _121
REMARK   46  A    between atoms: _121  and  _122
REMARK   47  A    between atoms: _121  and  _124
REMARK   48  A    between atoms: _124  and  _125
REMARK   49  A    between atoms: _130  and  _131
REMARK   50  A    between atoms: _133  and  _135
REMARK   51  A    between atoms: _135  and  _136
REMARK   52  A    between atoms: _135  and  _138
REMARK   53  A    between atoms: _138  and  _139
REMARK   54  A    between atoms: _139  and  _140
REMARK   55  A    between atoms: _140  and  _141
REMARK   56  A    between atoms: _141  and  _142
REMARK   57  A    between atoms: _146  and  _148
REMARK   58  A    between atoms: _148  and  _149
REMARK   59  A    between atoms: _148  and  _151
REMARK   60  A    between atoms: _151  and  _152
REMARK   61  A    between atoms: _155  and  _157
REMARK   62  A    between atoms: _157  and  _158
REMARK   63  A    between atoms: _157  and  _160
REMARK   64  A    between atoms: _160  and  _161
REMARK   65  A    between atoms: _163  and  _165
REMARK   66  A    between atoms: _165  and  _166
REMARK   67  A    between atoms: _165  and  _168
REMARK   68  A    between atoms: _168  and  _169
REMARK   69  A    between atoms: _169  and  _170
REMARK   70  A    between atoms: _170  and  _171
REMARK   71  A    between atoms: _180  and  _182
REMARK   72  A    between atoms: _182  and  _183
REMARK   73  A    between atoms: _182  and  _185
REMARK   74  A    between atoms: _185  and  _186
REMARK   75  A    between atoms: _196  and  _198
REMARK   76  A    between atoms: _198  and  _199
REMARK   77  A    between atoms: _198  and  _201
REMARK   78  A    between atoms: _201  and  _202
REMARK   79  A    between atoms: _202  and  _203
REMARK   80  A    between atoms: _208  and  _210
REMARK   81  A    between atoms: _210  and  _211
REMARK   82  A    between atoms: _214  and  _216
REMARK   83  A    between atoms: _216  and  _217
REMARK   84  A    between atoms: _216  and  _219
REMARK   85  A    between atoms: _219  and  _220
REMARK   86  A    between atoms: _228  and  _230
REMARK   87  A    between atoms: _230  and  _231
REMARK   88  A    between atoms: _230  and  _233
REMARK   89  A    between atoms: _233  and  _234
REMARK   90  A    between atoms: _237  and  _239
REMARK   91  A    between atoms: _239  and  _240
REMARK   92  A    between atoms: _239  and  _242
REMARK   93  A    between atoms: _242  and  _243
REMARK   94  A    between atoms: _248  and  _249
REMARK   95  A    between atoms: _252  and  _253
REMARK   96  A    between atoms: _258  and  _260
REMARK   97  A    between atoms: _260  and  _261
REMARK   98  A    between atoms: _260  and  _263
REMARK   99  A    between atoms: _263  and  _264
REMARK  100  A    between atoms: _274  and  _276
REMARK  101  A    between atoms: _276  and  _277
REMARK  102  A    between atoms: _276  and  _279
REMARK  103  A    between atoms: _279  and  _280
REMARK  104  A    between atoms: _280  and  _281
REMARK  105  A    between atoms: _281  and  _282
REMARK  106  A    between atoms: _291  and  _293
REMARK  107  A    between atoms: _293  and  _294
REMARK  108  A    between atoms: _293  and  _296
REMARK  109  A    between atoms: _296  and  _297
REMARK  110  A    between atoms: _302  and  _304
REMARK  111  A    between atoms: _304  and  _305
REMARK  112  A    between atoms: _304  and  _307
REMARK  113  A    between atoms: _307  and  _308
REMARK  114  A    between atoms: _308  and  _309
REMARK  115  A    between atoms: _309  and  _310
REMARK  116  A    between atoms: _320  and  _321
REMARK  117  A    between atoms: _326  and  _328
REMARK  118  A    between atoms: _339  and  _342
REMARK  119  A    between atoms: _342  and  _343
REMARK  120  A    between atoms: _348  and  _349
REMARK  121  A    between atoms: _357  and  _359
REMARK  122  A    between atoms: _359  and  _360
REMARK  123  A    between atoms: _359  and  _362
REMARK  124  A    between atoms: _362  and  _363
REMARK  125  A    between atoms: _363  and  _364
REMARK  126  A    between atoms: _369  and  _371
REMARK  127  A    between atoms: _371  and  _372
REMARK  128  A    between atoms: _371  and  _374
REMARK  129  A    between atoms: _374  and  _375
REMARK  130  A    between atoms: _380  and  _381
REMARK  131  A    between atoms: _383  and  _385
REMARK  132  A    between atoms: _385  and  _386
REMARK  133  A    between atoms: _385  and  _388
REMARK  134  A    between atoms: _390  and  _392
REMARK  135  A    between atoms: _392  and  _393
REMARK  136  A    between atoms: _392  and  _395
REMARK  137  A    between atoms: _395  and  _396
REMARK  138  A    between atoms: _399  and  _401
REMARK  139  A    between atoms: _401  and  _402
REMARK  140  A    between atoms: _401  and  _404
REMARK  141  A    between atoms: _404  and  _405
REMARK  142  A    between atoms: _405  and  _406
REMARK                            x       y       z     vdW  Elec       q    Type
REMARK                         _______ _______ _______ _____ _____    ______ ____
ROOT
ATOM      1  O   HOH     1       8.612   4.395  41.821  0.00  0.00    +0.000 OA
ENDROOT
TORSDOF 0
REMARK  Name = ../refined-set-2016/3pcg/3pcg_pocket.pdb
REMARK  142 active torsions:
REMARK  status: ('A' for Active; 'I' for Inactive)
REMARK    1  A    between atoms: _1  and  _3
REMARK    2  A    between atoms: _3  and  _4
REMARK    3  A    between atoms: _3  and  _6
REMARK    4  A    between atoms: _6  and  _7
REMARK    5  A    between atoms: _7  and  _8
REMARK    6  A    between atoms: _13  and  _15
REMARK    7  A    between atoms: _15  and  _16
REMARK    8  A    between atoms: _15  and  _18
REMARK    9  A    between atoms: _18  and  _19
REMARK   10  A    between atoms: _22  and  _24
REMARK   11  A    between atoms: _24  and  _25
REMARK   12  A    between atoms: _28  and  _30
REMARK   13  A    between atoms: _30  and  _31
REMARK   14  A    between atoms: _34  and  _35
REMARK   15  A    between atoms: _40  and  _42
REMARK   16  A    between atoms: _42  and  _43
REMARK   17  A    between atoms: _42  and  _45
REMARK   18  A    between atoms: _45  and  _46
REMARK   19  A    between atoms: _51  and  _52
REMARK   20  A    between atoms: _54  and  _56
REMARK   21  A    between atoms: _56  and  _57
REMARK   22  A    between atoms: _56  and  _59
REMARK   23  A    between atoms: _62  and  _64
REMARK   24  A    between atoms: _64  and  _65
REMARK   25  A    between atoms: _64  and  _67
REMARK   26  A    between atoms: _67  and  _68
REMARK   27  A    between atoms: _71  and  _73
REMARK   28  A    between atoms: _73  and  _74
REMARK   29  A    between atoms: _77  and  _79
REMARK   30  A    between atoms: _79  and  _80
REMARK   31  A    between atoms: _79  and  _82
REMARK   32  A    between atoms: _82  and  _83
REMARK   33  A    between atoms: _83  and  _84
REMARK   34  A    between atoms: _84  and  _85
REMARK   35  A    between atoms: _94  and  _96
REMARK   36  A    between atoms: _96  and  _97
REMARK   37  A    between atoms: _99  and  _101
REMARK   38  A    between atoms: _101  and  _102
REMARK   39  A    between atoms: _101  and  _104
REMARK   40  A    between atoms: _104  and  _105
REMARK   41  A    between atoms: _108  and  _110
REMARK   42  A    between atoms: _110  and  _111
REMARK   43  A    between atoms: _110  and  _113
REMARK   44  A    between atoms: _113  and  _114
REMARK   45  A    between atoms: _119  and  _121
REMARK   46  A    between atoms: _121  and  _122
REMARK   47  A    between atoms: _121  and  _124
REMARK   48  A    between atoms: _124  and  _125
REMARK   49  A    between atoms: _130  and  _131
REMARK   50  A    between atoms: _133  and  _135
REMARK   51  A    between atoms: _135  and  _136
REMARK   52  A    between atoms: _135  and  _138
REMARK   53  A    between atoms: _138  and  _139
REMARK   54  A    between atoms: _139  and  _140
REMARK   55  A    between atoms: _140  and  _141
REMARK   56  A    between atoms: _141  and  _142
REMARK   57  A    between atoms: _146  and  _148
REMARK   58  A    between atoms: _148  and  _149
REMARK   59  A    between atoms: _148  and  _151
REMARK   60  A    between atoms: _151  and  _152
REMARK   61  A    between atoms: _155  and  _157
REMARK   62  A    between atoms: _157  and  _158
REMARK   63  A    between atoms: _157  and  _160
REMARK   64  A    between atoms: _160  and  _161
REMARK   65  A    between atoms: _163  and  _165
REMARK   66  A    between atoms: _165  and  _166
REMARK   67  A    between atoms: _165  and  _168
REMARK   68  A    between atoms: _168  and  _169
REMARK   69  A    between atoms: _169  and  _170
REMARK   70  A    between atoms: _170  and  _171
REMARK   71  A    between atoms: _180  and  _182
REMARK   72  A    between atoms: _182  and  _183
REMARK   73  A    between atoms: _182  and  _185
REMARK   74  A    between atoms: _185  and  _186
REMARK   75  A    between atoms: _196  and  _198
REMARK   76  A    between atoms: _198  and  _199
REMARK   77  A    between atoms: _198  and  _201
REMARK   78  A    between atoms: _201  and  _202
REMARK   79  A    between atoms: _202  and  _203
REMARK   80  A    between atoms: _208  and  _210
REMARK   81  A    between atoms: _210  and  _211
REMARK   82  A    between atoms: _214  and  _216
REMARK   83  A    between atoms: _216  and  _217
REMARK   84  A    between atoms: _216  and  _219
REMARK   85  A    between atoms: _219  and  _220
REMARK   86  A    between atoms: _228  and  _230
REMARK   87  A    between atoms: _230  and  _231
REMARK   88  A    between atoms: _230  and  _233
REMARK   89  A    between atoms: _233  and  _234
REMARK   90  A    between atoms: _237  and  _239
REMARK   91  A    between atoms: _239  and  _240
REMARK   92  A    between atoms: _239  and  _242
REMARK   93  A    between atoms: _242  and  _243
REMARK   94  A    between atoms: _248  and  _249
REMARK   95  A    between atoms: _252  and  _253
REMARK   96  A    between atoms: _258  and  _260
REMARK   97  A    between atoms: _260  and  _261
REMARK   98  A    between atoms: _260  and  _263
REMARK   99  A    between atoms: _263  and  _264
REMARK  100  A    between atoms: _274  and  _276
REMARK  101  A    between atoms: _276  and  _277
REMARK  102  A    between atoms: _276  and  _279
REMARK  103  A    between atoms: _279  and  _280
REMARK  104  A    between atoms: _280  and  _281
REMARK  105  A    between atoms: _281  and  _282
REMARK  106  A    between atoms: _291  and  _293
REMARK  107  A    between atoms: _293  and  _294
REMARK  108  A    between atoms: _293  and  _296
REMARK  109  A    between atoms: _296  and  _297
REMARK  110  A    between atoms: _302  and  _304
REMARK  111  A    between atoms: _304  and  _305
REMARK  112  A    between atoms: _304  and  _307
REMARK  113  A    between atoms: _307  and  _308
REMARK  114  A    between atoms: _308  and  _309
REMARK  115  A    between atoms: _309  and  _310
REMARK  116  A    between atoms: _320  and  _321
REMARK  117  A    between atoms: _326  and  _328
REMARK  118  A    between atoms: _339  and  _342
REMARK  119  A    between atoms: _342  and  _343
REMARK  120  A    between atoms: _348  and  _349
REMARK  121  A    between atoms: _357  and  _359
REMARK  122  A    between atoms: _359  and  _360
REMARK  123  A    between atoms: _359  and  _362
REMARK  124  A    between atoms: _362  and  _363
REMARK  125  A    between atoms: _363  and  _364
REMARK  126  A    between atoms: _369  and  _371
REMARK  127  A    between atoms: _371  and  _372
REMARK  128  A    between atoms: _371  and  _374
REMARK  129  A    between atoms: _374  and  _375
REMARK  130  A    between atoms: _380  and  _381
REMARK  131  A    between atoms: _383  and  _385
REMARK  132  A    between atoms: _385  and  _386
REMARK  133  A    between atoms: _385  and  _388
REMARK  134  A    between atoms: _390  and  _392
REMARK  135  A    between atoms: _392  and  _393
REMARK  136  A    between atoms: _392  and  _395
REMARK  137  A    between atoms: _395  and  _396
REMARK  138  A    between atoms: _399  and  _401
REMARK  139  A    between atoms: _401  and  _402
REMARK  140  A    between atoms: _401  and  _404
REMARK  141  A    between atoms: _404  and  _405
REMARK  142  A    between atoms: _405  and  _406
REMARK                            x       y       z     vdW  Elec       q    Type
REMARK                         _______ _______ _______ _____ _____    ______ ____
ROOT
ATOM      1  O   HOH     1      11.001   3.575  43.339  0.00  0.00    +0.000 OA
ENDROOT
TORSDOF 0
REMARK  Name = ../refined-set-2016/3pcg/3pcg_pocket.pdb
REMARK  142 active torsions:
REMARK  status: ('A' for Active; 'I' for Inactive)
REMARK    1  A    between atoms: _1  and  _3
REMARK    2  A    between atoms: _3  and  _4
REMARK    3  A    between atoms: _3  and  _6
REMARK    4  A    between atoms: _6  and  _7
REMARK    5  A    between atoms: _7  and  _8
REMARK    6  A    between atoms: _13  and  _15
REMARK    7  A    between atoms: _15  and  _16
REMARK    8  A    between atoms: _15  and  _18
REMARK    9  A    between atoms: _18  and  _19
REMARK   10  A    between atoms: _22  and  _24
REMARK   11  A    between atoms: _24  and  _25
REMARK   12  A    between atoms: _28  and  _30
REMARK   13  A    between atoms: _30  and  _31
REMARK   14  A    between atoms: _34  and  _35
REMARK   15  A    between atoms: _40  and  _42
REMARK   16  A    between atoms: _42  and  _43
REMARK   17  A    between atoms: _42  and  _45
REMARK   18  A    between atoms: _45  and  _46
REMARK   19  A    between atoms: _51  and  _52
REMARK   20  A    between atoms: _54  and  _56
REMARK   21  A    between atoms: _56  and  _57
REMARK   22  A    between atoms: _56  and  _59
REMARK   23  A    between atoms: _62  and  _64
REMARK   24  A    between atoms: _64  and  _65
REMARK   25  A    between atoms: _64  and  _67
REMARK   26  A    between atoms: _67  and  _68
REMARK   27  A    between atoms: _71  and  _73
REMARK   28  A    between atoms: _73  and  _74
REMARK   29  A    between atoms: _77  and  _79
REMARK   30  A    between atoms: _79  and  _80
REMARK   31  A    between atoms: _79  and  _82
REMARK   32  A    between atoms: _82  and  _83
REMARK   33  A    between atoms: _83  and  _84
REMARK   34  A    between atoms: _84  and  _85
REMARK   35  A    between atoms: _94  and  _96
REMARK   36  A    between atoms: _96  and  _97
REMARK   37  A    between atoms: _99  and  _101
REMARK   38  A    between atoms: _101  and  _102
REMARK   39  A    between atoms: _101  and  _104
REMARK   40  A    between atoms: _104  and  _105
REMARK   41  A    between atoms: _108  and  _110
REMARK   42  A    between atoms: _110  and  _111
REMARK   43  A    between atoms: _110  and  _113
REMARK   44  A    between atoms: _113  and  _114
REMARK   45  A    between atoms: _119  and  _121
REMARK   46  A    between atoms: _121  and  _122
REMARK   47  A    between atoms: _121  and  _124
REMARK   48  A    between atoms: _124  and  _125
REMARK   49  A    between atoms: _130  and  _131
REMARK   50  A    between atoms: _133  and  _135
REMARK   51  A    between atoms: _135  and  _136
REMARK   52  A    between atoms: _135  and  _138
REMARK   53  A    between atoms: _138  and  _139
REMARK   54  A    between atoms: _139  and  _140
REMARK   55  A    between atoms: _140  and  _141
REMARK   56  A    between atoms: _141  and  _142
REMARK   57  A    between atoms: _146  and  _148
REMARK   58  A    between atoms: _148  and  _149
REMARK   59  A    between atoms: _148  and  _151
REMARK   60  A    between atoms: _151  and  _152
REMARK   61  A    between atoms: _155  and  _157
REMARK   62  A    between atoms: _157  and  _158
REMARK   63  A    between atoms: _157  and  _160
REMARK   64  A    between atoms: _160  and  _161
REMARK   65  A    between atoms: _163  and  _165
REMARK   66  A    between atoms: _165  and  _166
REMARK   67  A    between atoms: _165  and  _168
REMARK   68  A    between atoms: _168  and  _169
REMARK   69  A    between atoms: _169  and  _170
REMARK   70  A    between atoms: _170  and  _171
REMARK   71  A    between atoms: _180  and  _182
REMARK   72  A    between atoms: _182  and  _183
REMARK   73  A    between atoms: _182  and  _185
REMARK   74  A    between atoms: _185  and  _186
REMARK   75  A    between atoms: _196  and  _198
REMARK   76  A    between atoms: _198  and  _199
REMARK   77  A    between atoms: _198  and  _201
REMARK   78  A    between atoms: _201  and  _202
REMARK   79  A    between atoms: _202  and  _203
REMARK   80  A    between atoms: _208  and  _210
REMARK   81  A    between atoms: _210  and  _211
REMARK   82  A    between atoms: _214  and  _216
REMARK   83  A    between atoms: _216  and  _217
REMARK   84  A    between atoms: _216  and  _219
REMARK   85  A    between atoms: _219  and  _220
REMARK   86  A    between atoms: _228  and  _230
REMARK   87  A    between atoms: _230  and  _231
REMARK   88  A    between atoms: _230  and  _233
REMARK   89  A    between atoms: _233  and  _234
REMARK   90  A    between atoms: _237  and  _239
REMARK   91  A    between atoms: _239  and  _240
REMARK   92  A    between atoms: _239  and  _242
REMARK   93  A    between atoms: _242  and  _243
REMARK   94  A    between atoms: _248  and  _249
REMARK   95  A    between atoms: _252  and  _253
REMARK   96  A    between atoms: _258  and  _260
REMARK   97  A    between atoms: _260  and  _261
REMARK   98  A    between atoms: _260  and  _263
REMARK   99  A    between atoms: _263  and  _264
REMARK  100  A    between atoms: _274  and  _276
REMARK  101  A    between atoms: _276  and  _277
REMARK  102  A    between atoms: _276  and  _279
REMARK  103  A    between atoms: _279  and  _280
REMARK  104  A    between atoms: _280  and  _281
REMARK  105  A    between atoms: _281  and  _282
REMARK  106  A    between atoms: _291  and  _293
REMARK  107  A    between atoms: _293  and  _294
REMARK  108  A    between atoms: _293  and  _296
REMARK  109  A    between atoms: _296  and  _297
REMARK  110  A    between atoms: _302  and  _304
REMARK  111  A    between atoms: _304  and  _305
REMARK  112  A    between atoms: _304  and  _307
REMARK  113  A    between atoms: _307  and  _308
REMARK  114  A    between atoms: _308  and  _309
REMARK  115  A    between atoms: _309  and  _310
REMARK  116  A    between atoms: _320  and  _321
REMARK  117  A    between atoms: _326  and  _328
REMARK  118  A    between atoms: _339  and  _342
REMARK  119  A    between atoms: _342  and  _343
REMARK  120  A    between atoms: _348  and  _349
REMARK  121  A    between atoms: _357  and  _359
REMARK  122  A    between atoms: _359  and  _360
REMARK  123  A    between atoms: _359  and  _362
REMARK  124  A    between atoms: _362  and  _363
REMARK  125  A    between atoms: _363  and  _364
REMARK  126  A    between atoms: _369  and  _371
REMARK  127  A    between atoms: _371  and  _372
REMARK  128  A    between atoms: _371  and  _374
REMARK  129  A    between atoms: _374  and  _375
REMARK  130  A    between atoms: _380  and  _381
REMARK  131  A    between atoms: _383  and  _385
REMARK  132  A    between atoms: _385  and  _386
REMARK  133  A    between atoms: _385  and  _388
REMARK  134  A    between atoms: _390  and  _392
REMARK  135  A    between atoms: _392  and  _393
REMARK  136  A    between atoms: _392  and  _395
REMARK  137  A    between atoms: _395  and  _396
REMARK  138  A    between atoms: _399  and  _401
REMARK  139  A    between atoms: _401  and  _402
REMARK  140  A    between atoms: _401  and  _404
REMARK  141  A    between atoms: _404  and  _405
REMARK  142  A    between atoms: _405  and  _406
REMARK                            x       y       z     vdW  Elec       q    Type
REMARK                         _______ _______ _______ _____ _____    ______ ____
ROOT
ATOM      1  O   HOH     1      15.405  18.682  37.985  0.00  0.00    +0.000 OA
ENDROOT
TORSDOF 0
REMARK  Name = ../refined-set-2016/3pcg/3pcg_pocket.pdb
REMARK  142 active torsions:
REMARK  status: ('A' for Active; 'I' for Inactive)
REMARK    1  A    between atoms: _1  and  _3
REMARK    2  A    between atoms: _3  and  _4
REMARK    3  A    between atoms: _3  and  _6
REMARK    4  A    between atoms: _6  and  _7
REMARK    5  A    between atoms: _7  and  _8
REMARK    6  A    between atoms: _13  and  _15
REMARK    7  A    between atoms: _15  and  _16
REMARK    8  A    between atoms: _15  and  _18
REMARK    9  A    between atoms: _18  and  _19
REMARK   10  A    between atoms: _22  and  _24
REMARK   11  A    between atoms: _24  and  _25
REMARK   12  A    between atoms: _28  and  _30
REMARK   13  A    between atoms: _30  and  _31
REMARK   14  A    between atoms: _34  and  _35
REMARK   15  A    between atoms: _40  and  _42
REMARK   16  A    between atoms: _42  and  _43
REMARK   17  A    between atoms: _42  and  _45
REMARK   18  A    between atoms: _45  and  _46
REMARK   19  A    between atoms: _51  and  _52
REMARK   20  A    between atoms: _54  and  _56
REMARK   21  A    between atoms: _56  and  _57
REMARK   22  A    between atoms: _56  and  _59
REMARK   23  A    between atoms: _62  and  _64
REMARK   24  A    between atoms: _64  and  _65
REMARK   25  A    between atoms: _64  and  _67
REMARK   26  A    between atoms: _67  and  _68
REMARK   27  A    between atoms: _71  and  _73
REMARK   28  A    between atoms: _73  and  _74
REMARK   29  A    between atoms: _77  and  _79
REMARK   30  A    between atoms: _79  and  _80
REMARK   31  A    between atoms: _79  and  _82
REMARK   32  A    between atoms: _82  and  _83
REMARK   33  A    between atoms: _83  and  _84
REMARK   34  A    between atoms: _84  and  _85
REMARK   35  A    between atoms: _94  and  _96
REMARK   36  A    between atoms: _96  and  _97
REMARK   37  A    between atoms: _99  and  _101
REMARK   38  A    between atoms: _101  and  _102
REMARK   39  A    between atoms: _101  and  _104
REMARK   40  A    between atoms: _104  and  _105
REMARK   41  A    between atoms: _108  and  _110
REMARK   42  A    between atoms: _110  and  _111
REMARK   43  A    between atoms: _110  and  _113
REMARK   44  A    between atoms: _113  and  _114
REMARK   45  A    between atoms: _119  and  _121
REMARK   46  A    between atoms: _121  and  _122
REMARK   47  A    between atoms: _121  and  _124
REMARK   48  A    between atoms: _124  and  _125
REMARK   49  A    between atoms: _130  and  _131
REMARK   50  A    between atoms: _133  and  _135
REMARK   51  A    between atoms: _135  and  _136
REMARK   52  A    between atoms: _135  and  _138
REMARK   53  A    between atoms: _138  and  _139
REMARK   54  A    between atoms: _139  and  _140
REMARK   55  A    between atoms: _140  and  _141
REMARK   56  A    between atoms: _141  and  _142
REMARK   57  A    between atoms: _146  and  _148
REMARK   58  A    between atoms: _148  and  _149
REMARK   59  A    between atoms: _148  and  _151
REMARK   60  A    between atoms: _151  and  _152
REMARK   61  A    between atoms: _155  and  _157
REMARK   62  A    between atoms: _157  and  _158
REMARK   63  A    between atoms: _157  and  _160
REMARK   64  A    between atoms: _160  and  _161
REMARK   65  A    between atoms: _163  and  _165
REMARK   66  A    between atoms: _165  and  _166
REMARK   67  A    between atoms: _165  and  _168
REMARK   68  A    between atoms: _168  and  _169
REMARK   69  A    between atoms: _169  and  _170
REMARK   70  A    between atoms: _170  and  _171
REMARK   71  A    between atoms: _180  and  _182
REMARK   72  A    between atoms: _182  and  _183
REMARK   73  A    between atoms: _182  and  _185
REMARK   74  A    between atoms: _185  and  _186
REMARK   75  A    between atoms: _196  and  _198
REMARK   76  A    between atoms: _198  and  _199
REMARK   77  A    between atoms: _198  and  _201
REMARK   78  A    between atoms: _201  and  _202
REMARK   79  A    between atoms: _202  and  _203
REMARK   80  A    between atoms: _208  and  _210
REMARK   81  A    between atoms: _210  and  _211
REMARK   82  A    between atoms: _214  and  _216
REMARK   83  A    between atoms: _216  and  _217
REMARK   84  A    between atoms: _216  and  _219
REMARK   85  A    between atoms: _219  and  _220
REMARK   86  A    between atoms: _228  and  _230
REMARK   87  A    between atoms: _230  and  _231
REMARK   88  A    between atoms: _230  and  _233
REMARK   89  A    between atoms: _233  and  _234
REMARK   90  A    between atoms: _237  and  _239
REMARK   91  A    between atoms: _239  and  _240
REMARK   92  A    between atoms: _239  and  _242
REMARK   93  A    between atoms: _242  and  _243
REMARK   94  A    between atoms: _248  and  _249
REMARK   95  A    between atoms: _252  and  _253
REMARK   96  A    between atoms: _258  and  _260
REMARK   97  A    between atoms: _260  and  _261
REMARK   98  A    between atoms: _260  and  _263
REMARK   99  A    between atoms: _263  and  _264
REMARK  100  A    between atoms: _274  and  _276
REMARK  101  A    between atoms: _276  and  _277
REMARK  102  A    between atoms: _276  and  _279
REMARK  103  A    between atoms: _279  and  _280
REMARK  104  A    between atoms: _280  and  _281
REMARK  105  A    between atoms: _281  and  _282
REMARK  106  A    between atoms: _291  and  _293
REMARK  107  A    between atoms: _293  and  _294
REMARK  108  A    between atoms: _293  and  _296
REMARK  109  A    between atoms: _296  and  _297
REMARK  110  A    between atoms: _302  and  _304
REMARK  111  A    between atoms: _304  and  _305
REMARK  112  A    between atoms: _304  and  _307
REMARK  113  A    between atoms: _307  and  _308
REMARK  114  A    between atoms: _308  and  _309
REMARK  115  A    between atoms: _309  and  _310
REMARK  116  A    between atoms: _320  and  _321
REMARK  117  A    between atoms: _326  and  _328
REMARK  118  A    between atoms: _339  and  _342
REMARK  119  A    between atoms: _342  and  _343
REMARK  120  A    between atoms: _348  and  _349
REMARK  121  A    between atoms: _357  and  _359
REMARK  122  A    between atoms: _359  and  _360
REMARK  123  A    between atoms: _359  and  _362
REMARK  124  A    between atoms: _362  and  _363
REMARK  125  A    between atoms: _363  and  _364
REMARK  126  A    between atoms: _369  and  _371
REMARK  127  A    between atoms: _371  and  _372
REMARK  128  A    between atoms: _371  and  _374
REMARK  129  A    between atoms: _374  and  _375
REMARK  130  A    between atoms: _380  and  _381
REMARK  131  A    between atoms: _383  and  _385
REMARK  132  A    between atoms: _385  and  _386
REMARK  133  A    between atoms: _385  and  _388
REMARK  134  A    between atoms: _390  and  _392
REMARK  135  A    between atoms: _392  and  _393
REMARK  136  A    between atoms: _392  and  _395
REMARK  137  A    between atoms: _395  and  _396
REMARK  138  A    between atoms: _399  and  _401
REMARK  139  A    between atoms: _401  and  _402
REMARK  140  A    between atoms: _401  and  _404
REMARK  141  A    between atoms: _404  and  _405
REMARK  142  A    between atoms: _405  and  _406
REMARK                            x       y       z     vdW  Elec       q    Type
REMARK                         _______ _______ _______ _____ _____    ______ ____
ROOT
ATOM      1  O   HOH     1      11.470  16.802  43.877  0.00  0.00    +0.000 OA
ENDROOT
TORSDOF 0
REMARK  Name = ../refined-set-2016/3pcg/3pcg_pocket.pdb
REMARK  142 active torsions:
REMARK  status: ('A' for Active; 'I' for Inactive)
REMARK    1  A    between atoms: _1  and  _3
REMARK    2  A    between atoms: _3  and  _4
REMARK    3  A    between atoms: _3  and  _6
REMARK    4  A    between atoms: _6  and  _7
REMARK    5  A    between atoms: _7  and  _8
REMARK    6  A    between atoms: _13  and  _15
REMARK    7  A    between atoms: _15  and  _16
REMARK    8  A    between atoms: _15  and  _18
REMARK    9  A    between atoms: _18  and  _19
REMARK   10  A    between atoms: _22  and  _24
REMARK   11  A    between atoms: _24  and  _25
REMARK   12  A    between atoms: _28  and  _30
REMARK   13  A    between atoms: _30  and  _31
REMARK   14  A    between atoms: _34  and  _35
REMARK   15  A    between atoms: _40  and  _42
REMARK   16  A    between atoms: _42  and  _43
REMARK   17  A    between atoms: _42  and  _45
REMARK   18  A    between atoms: _45  and  _46
REMARK   19  A    between atoms: _51  and  _52
REMARK   20  A    between atoms: _54  and  _56
REMARK   21  A    between atoms: _56  and  _57
REMARK   22  A    between atoms: _56  and  _59
REMARK   23  A    between atoms: _62  and  _64
REMARK   24  A    between atoms: _64  and  _65
REMARK   25  A    between atoms: _64  and  _67
REMARK   26  A    between atoms: _67  and  _68
REMARK   27  A    between atoms: _71  and  _73
REMARK   28  A    between atoms: _73  and  _74
REMARK   29  A    between atoms: _77  and  _79
REMARK   30  A    between atoms: _79  and  _80
REMARK   31  A    between atoms: _79  and  _82
REMARK   32  A    between atoms: _82  and  _83
REMARK   33  A    between atoms: _83  and  _84
REMARK   34  A    between atoms: _84  and  _85
REMARK   35  A    between atoms: _94  and  _96
REMARK   36  A    between atoms: _96  and  _97
REMARK   37  A    between atoms: _99  and  _101
REMARK   38  A    between atoms: _101  and  _102
REMARK   39  A    between atoms: _101  and  _104
REMARK   40  A    between atoms: _104  and  _105
REMARK   41  A    between atoms: _108  and  _110
REMARK   42  A    between atoms: _110  and  _111
REMARK   43  A    between atoms: _110  and  _113
REMARK   44  A    between atoms: _113  and  _114
REMARK   45  A    between atoms: _119  and  _121
REMARK   46  A    between atoms: _121  and  _122
REMARK   47  A    between atoms: _121  and  _124
REMARK   48  A    between atoms: _124  and  _125
REMARK   49  A    between atoms: _130  and  _131
REMARK   50  A    between atoms: _133  and  _135
REMARK   51  A    between atoms: _135  and  _136
REMARK   52  A    between atoms: _135  and  _138
REMARK   53  A    between atoms: _138  and  _139
REMARK   54  A    between atoms: _139  and  _140
REMARK   55  A    between atoms: _140  and  _141
REMARK   56  A    between atoms: _141  and  _142
REMARK   57  A    between atoms: _146  and  _148
REMARK   58  A    between atoms: _148  and  _149
REMARK   59  A    between atoms: _148  and  _151
REMARK   60  A    between atoms: _151  and  _152
REMARK   61  A    between atoms: _155  and  _157
REMARK   62  A    between atoms: _157  and  _158
REMARK   63  A    between atoms: _157  and  _160
REMARK   64  A    between atoms: _160  and  _161
REMARK   65  A    between atoms: _163  and  _165
REMARK   66  A    between atoms: _165  and  _166
REMARK   67  A    between atoms: _165  and  _168
REMARK   68  A    between atoms: _168  and  _169
REMARK   69  A    between atoms: _169  and  _170
REMARK   70  A    between atoms: _170  and  _171
REMARK   71  A    between atoms: _180  and  _182
REMARK   72  A    between atoms: _182  and  _183
REMARK   73  A    between atoms: _182  and  _185
REMARK   74  A    between atoms: _185  and  _186
REMARK   75  A    between atoms: _196  and  _198
REMARK   76  A    between atoms: _198  and  _199
REMARK   77  A    between atoms: _198  and  _201
REMARK   78  A    between atoms: _201  and  _202
REMARK   79  A    between atoms: _202  and  _203
REMARK   80  A    between atoms: _208  and  _210
REMARK   81  A    between atoms: _210  and  _211
REMARK   82  A    between atoms: _214  and  _216
REMARK   83  A    between atoms: _216  and  _217
REMARK   84  A    between atoms: _216  and  _219
REMARK   85  A    between atoms: _219  and  _220
REMARK   86  A    between atoms: _228  and  _230
REMARK   87  A    between atoms: _230  and  _231
REMARK   88  A    between atoms: _230  and  _233
REMARK   89  A    between atoms: _233  and  _234
REMARK   90  A    between atoms: _237  and  _239
REMARK   91  A    between atoms: _239  and  _240
REMARK   92  A    between atoms: _239  and  _242
REMARK   93  A    between atoms: _242  and  _243
REMARK   94  A    between atoms: _248  and  _249
REMARK   95  A    between atoms: _252  and  _253
REMARK   96  A    between atoms: _258  and  _260
REMARK   97  A    between atoms: _260  and  _261
REMARK   98  A    between atoms: _260  and  _263
REMARK   99  A    between atoms: _263  and  _264
REMARK  100  A    between atoms: _274  and  _276
REMARK  101  A    between atoms: _276  and  _277
REMARK  102  A    between atoms: _276  and  _279
REMARK  103  A    between atoms: _279  and  _280
REMARK  104  A    between atoms: _280  and  _281
REMARK  105  A    between atoms: _281  and  _282
REMARK  106  A    between atoms: _291  and  _293
REMARK  107  A    between atoms: _293  and  _294
REMARK  108  A    between atoms: _293  and  _296
REMARK  109  A    between atoms: _296  and  _297
REMARK  110  A    between atoms: _302  and  _304
REMARK  111  A    between atoms: _304  and  _305
REMARK  112  A    between atoms: _304  and  _307
REMARK  113  A    between atoms: _307  and  _308
REMARK  114  A    between atoms: _308  and  _309
REMARK  115  A    between atoms: _309  and  _310
REMARK  116  A    between atoms: _320  and  _321
REMARK  117  A    between atoms: _326  and  _328
REMARK  118  A    between atoms: _339  and  _342
REMARK  119  A    between atoms: _342  and  _343
REMARK  120  A    between atoms: _348  and  _349
REMARK  121  A    between atoms: _357  and  _359
REMARK  122  A    between atoms: _359  and  _360
REMARK  123  A    between atoms: _359  and  _362
REMARK  124  A    between atoms: _362  and  _363
REMARK  125  A    between atoms: _363  and  _364
REMARK  126  A    between atoms: _369  and  _371
REMARK  127  A    between atoms: _371  and  _372
REMARK  128  A    between atoms: _371  and  _374
REMARK  129  A    between atoms: _374  and  _375
REMARK  130  A    between atoms: _380  and  _381
REMARK  131  A    between atoms: _383  and  _385
REMARK  132  A    between atoms: _385  and  _386
REMARK  133  A    between atoms: _385  and  _388
REMARK  134  A    between atoms: _390  and  _392
REMARK  135  A    between atoms: _392  and  _393
REMARK  136  A    between atoms: _392  and  _395
REMARK  137  A    between atoms: _395  and  _396
REMARK  138  A    between atoms: _399  and  _401
REMARK  139  A    between atoms: _401  and  _402
REMARK  140  A    between atoms: _401  and  _404
REMARK  141  A    between atoms: _404  and  _405
REMARK  142  A    between atoms: _405  and  _406
REMARK                            x       y       z     vdW  Elec       q    Type
REMARK                         _______ _______ _______ _____ _____    ______ ____
ROOT
ATOM      1  O   HOH     1       8.900  10.201  46.631  0.00  0.00    +0.000 OA
ENDROOT
TORSDOF 0
REMARK  Name = ../refined-set-2016/3pcg/3pcg_pocket.pdb
REMARK  142 active torsions:
REMARK  status: ('A' for Active; 'I' for Inactive)
REMARK    1  A    between atoms: _1  and  _3
REMARK    2  A    between atoms: _3  and  _4
REMARK    3  A    between atoms: _3  and  _6
REMARK    4  A    between atoms: _6  and  _7
REMARK    5  A    between atoms: _7  and  _8
REMARK    6  A    between atoms: _13  and  _15
REMARK    7  A    between atoms: _15  and  _16
REMARK    8  A    between atoms: _15  and  _18
REMARK    9  A    between atoms: _18  and  _19
REMARK   10  A    between atoms: _22  and  _24
REMARK   11  A    between atoms: _24  and  _25
REMARK   12  A    between atoms: _28  and  _30
REMARK   13  A    between atoms: _30  and  _31
REMARK   14  A    between atoms: _34  and  _35
REMARK   15  A    between atoms: _40  and  _42
REMARK   16  A    between atoms: _42  and  _43
REMARK   17  A    between atoms: _42  and  _45
REMARK   18  A    between atoms: _45  and  _46
REMARK   19  A    between atoms: _51  and  _52
REMARK   20  A    between atoms: _54  and  _56
REMARK   21  A    between atoms: _56  and  _57
REMARK   22  A    between atoms: _56  and  _59
REMARK   23  A    between atoms: _62  and  _64
REMARK   24  A    between atoms: _64  and  _65
REMARK   25  A    between atoms: _64  and  _67
REMARK   26  A    between atoms: _67  and  _68
REMARK   27  A    between atoms: _71  and  _73
REMARK   28  A    between atoms: _73  and  _74
REMARK   29  A    between atoms: _77  and  _79
REMARK   30  A    between atoms: _79  and  _80
REMARK   31  A    between atoms: _79  and  _82
REMARK   32  A    between atoms: _82  and  _83
REMARK   33  A    between atoms: _83  and  _84
REMARK   34  A    between atoms: _84  and  _85
REMARK   35  A    between atoms: _94  and  _96
REMARK   36  A    between atoms: _96  and  _97
REMARK   37  A    between atoms: _99  and  _101
REMARK   38  A    between atoms: _101  and  _102
REMARK   39  A    between atoms: _101  and  _104
REMARK   40  A    between atoms: _104  and  _105
REMARK   41  A    between atoms: _108  and  _110
REMARK   42  A    between atoms: _110  and  _111
REMARK   43  A    between atoms: _110  and  _113
REMARK   44  A    between atoms: _113  and  _114
REMARK   45  A    between atoms: _119  and  _121
REMARK   46  A    between atoms: _121  and  _122
REMARK   47  A    between atoms: _121  and  _124
REMARK   48  A    between atoms: _124  and  _125
REMARK   49  A    between atoms: _130  and  _131
REMARK   50  A    between atoms: _133  and  _135
REMARK   51  A    between atoms: _135  and  _136
REMARK   52  A    between atoms: _135  and  _138
REMARK   53  A    between atoms: _138  and  _139
REMARK   54  A    between atoms: _139  and  _140
REMARK   55  A    between atoms: _140  and  _141
REMARK   56  A    between atoms: _141  and  _142
REMARK   57  A    between atoms: _146  and  _148
REMARK   58  A    between atoms: _148  and  _149
REMARK   59  A    between atoms: _148  and  _151
REMARK   60  A    between atoms: _151  and  _152
REMARK   61  A    between atoms: _155  and  _157
REMARK   62  A    between atoms: _157  and  _158
REMARK   63  A    between atoms: _157  and  _160
REMARK   64  A    between atoms: _160  and  _161
REMARK   65  A    between atoms: _163  and  _165
REMARK   66  A    between atoms: _165  and  _166
REMARK   67  A    between atoms: _165  and  _168
REMARK   68  A    between atoms: _168  and  _169
REMARK   69  A    between atoms: _169  and  _170
REMARK   70  A    between atoms: _170  and  _171
REMARK   71  A    between atoms: _180  and  _182
REMARK   72  A    between atoms: _182  and  _183
REMARK   73  A    between atoms: _182  and  _185
REMARK   74  A    between atoms: _185  and  _186
REMARK   75  A    between atoms: _196  and  _198
REMARK   76  A    between atoms: _198  and  _199
REMARK   77  A    between atoms: _198  and  _201
REMARK   78  A    between atoms: _201  and  _202
REMARK   79  A    between atoms: _202  and  _203
REMARK   80  A    between atoms: _208  and  _210
REMARK   81  A    between atoms: _210  and  _211
REMARK   82  A    between atoms: _214  and  _216
REMARK   83  A    between atoms: _216  and  _217
REMARK   84  A    between atoms: _216  and  _219
REMARK   85  A    between atoms: _219  and  _220
REMARK   86  A    between atoms: _228  and  _230
REMARK   87  A    between atoms: _230  and  _231
REMARK   88  A    between atoms: _230  and  _233
REMARK   89  A    between atoms: _233  and  _234
REMARK   90  A    between atoms: _237  and  _239
REMARK   91  A    between atoms: _239  and  _240
REMARK   92  A    between atoms: _239  and  _242
REMARK   93  A    between atoms: _242  and  _243
REMARK   94  A    between atoms: _248  and  _249
REMARK   95  A    between atoms: _252  and  _253
REMARK   96  A    between atoms: _258  and  _260
REMARK   97  A    between atoms: _260  and  _261
REMARK   98  A    between atoms: _260  and  _263
REMARK   99  A    between atoms: _263  and  _264
REMARK  100  A    between atoms: _274  and  _276
REMARK  101  A    between atoms: _276  and  _277
REMARK  102  A    between atoms: _276  and  _279
REMARK  103  A    between atoms: _279  and  _280
REMARK  104  A    between atoms: _280  and  _281
REMARK  105  A    between atoms: _281  and  _282
REMARK  106  A    between atoms: _291  and  _293
REMARK  107  A    between atoms: _293  and  _294
REMARK  108  A    between atoms: _293  and  _296
REMARK  109  A    between atoms: _296  and  _297
REMARK  110  A    between atoms: _302  and  _304
REMARK  111  A    between atoms: _304  and  _305
REMARK  112  A    between atoms: _304  and  _307
REMARK  113  A    between atoms: _307  and  _308
REMARK  114  A    between atoms: _308  and  _309
REMARK  115  A    between atoms: _309  and  _310
REMARK  116  A    between atoms: _320  and  _321
REMARK  117  A    between atoms: _326  and  _328
REMARK  118  A    between atoms: _339  and  _342
REMARK  119  A    between atoms: _342  and  _343
REMARK  120  A    between atoms: _348  and  _349
REMARK  121  A    between atoms: _357  and  _359
REMARK  122  A    between atoms: _359  and  _360
REMARK  123  A    between atoms: _359  and  _362
REMARK  124  A    between atoms: _362  and  _363
REMARK  125  A    between atoms: _363  and  _364
REMARK  126  A    between atoms: _369  and  _371
REMARK  127  A    between atoms: _371  and  _372
REMARK  128  A    between atoms: _371  and  _374
REMARK  129  A    between atoms: _374  and  _375
REMARK  130  A    between atoms: _380  and  _381
REMARK  131  A    between atoms: _383  and  _385
REMARK  132  A    between atoms: _385  and  _386
REMARK  133  A    between atoms: _385  and  _388
REMARK  134  A    between atoms: _390  and  _392
REMARK  135  A    between atoms: _392  and  _393
REMARK  136  A    between atoms: _392  and  _395
REMARK  137  A    between atoms: _395  and  _396
REMARK  138  A    between atoms: _399  and  _401
REMARK  139  A    between atoms: _401  and  _402
REMARK  140  A    between atoms: _401  and  _404
REMARK  141  A    between atoms: _404  and  _405
REMARK  142  A    between atoms: _405  and  _406
REMARK                            x       y       z     vdW  Elec       q    Type
REMARK                         _______ _______ _______ _____ _____    ______ ____
ROOT
ATOM      1  O   HOH     1      12.819  14.422  43.309  0.00  0.00    +0.000 OA
ENDROOT
TORSDOF 0
