REMARK  Name = ../refined-set-2016/4d1j/4d1j_pocket.pdb
REMARK  140 active torsions:
REMARK  status: ('A' for Active; 'I' for Inactive)
REMARK    1  A    between atoms: _1  and  _3
REMARK    2  A    between atoms: _3  and  _4
REMARK    3  A    between atoms: _3  and  _6
REMARK    4  A    between atoms: _6  and  _7
REMARK    5  A    between atoms: _7  and  _8
REMARK    6  A    between atoms: _13  and  _15
REMARK    7  A    between atoms: _15  and  _16
REMARK    8  A    between atoms: _15  and  _18
REMARK    9  A    between atoms: _18  and  _19
REMARK   10  A    between atoms: _22  and  _24
REMARK   11  A    between atoms: _24  and  _25
REMARK   12  A    between atoms: _24  and  _27
REMARK   13  A    between atoms: _27  and  _28
REMARK   14  A    between atoms: _33  and  _35
REMARK   15  A    between atoms: _35  and  _36
REMARK   16  A    between atoms: _35  and  _38
REMARK   17  A    between atoms: _38  and  _39
REMARK   18  A    between atoms: _45  and  _46
REMARK   19  A    between atoms: _51  and  _53
REMARK   20  A    between atoms: _53  and  _54
REMARK   21  A    between atoms: _53  and  _56
REMARK   22  A    between atoms: _56  and  _57
REMARK   23  A    between atoms: _60  and  _62
REMARK   24  A    between atoms: _62  and  _63
REMARK   25  A    between atoms: _62  and  _65
REMARK   26  A    between atoms: _65  and  _66
REMARK   27  A    between atoms: _72  and  _74
REMARK   28  A    between atoms: _74  and  _75
REMARK   29  A    between atoms: _74  and  _77
REMARK   30  A    between atoms: _77  and  _78
REMARK   31  A    between atoms: _78  and  _79
REMARK   32  A    between atoms: _79  and  _80
REMARK   33  A    between atoms: _80  and  _81
REMARK   34  A    between atoms: _85  and  _87
REMARK   35  A    between atoms: _87  and  _88
REMARK   36  A    between atoms: _87  and  _90
REMARK   37  A    between atoms: _90  and  _91
REMARK   38  A    between atoms: _96  and  _98
REMARK   39  A    between atoms: _98  and  _99
REMARK   40  A    between atoms: _98  and  _101
REMARK   41  A    between atoms: _101  and  _102
REMARK   42  A    between atoms: _107  and  _109
REMARK   43  A    between atoms: _109  and  _110
REMARK   44  A    between atoms: _109  and  _112
REMARK   45  A    between atoms: _112  and  _113
REMARK   46  A    between atoms: _118  and  _119
REMARK   47  A    between atoms: _121  and  _123
REMARK   48  A    between atoms: _123  and  _124
REMARK   49  A    between atoms: _123  and  _126
REMARK   50  A    between atoms: _126  and  _127
REMARK   51  A    between atoms: _127  and  _128
REMARK   52  A    between atoms: _133  and  _135
REMARK   53  A    between atoms: _135  and  _136
REMARK   54  A    between atoms: _135  and  _138
REMARK   55  A    between atoms: _138  and  _139
REMARK   56  A    between atoms: _139  and  _140
REMARK   57  A    between atoms: _145  and  _147
REMARK   58  A    between atoms: _147  and  _148
REMARK   59  A    between atoms: _147  and  _150
REMARK   60  A    between atoms: _150  and  _151
REMARK   61  A    between atoms: _156  and  _158
REMARK   62  A    between atoms: _158  and  _159
REMARK   63  A    between atoms: _158  and  _161
REMARK   64  A    between atoms: _161  and  _162
REMARK   65  A    between atoms: _162  and  _163
REMARK   66  A    between atoms: _166  and  _168
REMARK   67  A    between atoms: _168  and  _169
REMARK   68  A    between atoms: _168  and  _171
REMARK   69  A    between atoms: _174  and  _176
REMARK   70  A    between atoms: _176  and  _177
REMARK   71  A    between atoms: _176  and  _179
REMARK   72  A    between atoms: _179  and  _180
REMARK   73  A    between atoms: _185  and  _186
REMARK   74  A    between atoms: _188  and  _190
REMARK   75  A    between atoms: _190  and  _191
REMARK   76  A    between atoms: _190  and  _193
REMARK   77  A    between atoms: _193  and  _194
REMARK   78  A    between atoms: _199  and  _201
REMARK   79  A    between atoms: _201  and  _202
REMARK   80  A    between atoms: _201  and  _204
REMARK   81  A    between atoms: _207  and  _209
REMARK   82  A    between atoms: _209  and  _210
REMARK   83  A    between atoms: _213  and  _215
REMARK   84  A    between atoms: _215  and  _216
REMARK   85  A    between atoms: _215  and  _218
REMARK   86  A    between atoms: _218  and  _219
REMARK   87  A    between atoms: _222  and  _224
REMARK   88  A    between atoms: _224  and  _225
REMARK   89  A    between atoms: _224  and  _227
REMARK   90  A    between atoms: _227  and  _228
REMARK   91  A    between atoms: _231  and  _233
REMARK   92  A    between atoms: _233  and  _234
REMARK   93  A    between atoms: _233  and  _236
REMARK   94  A    between atoms: _236  and  _237
REMARK   95  A    between atoms: _240  and  _242
REMARK   96  A    between atoms: _242  and  _243
REMARK   97  A    between atoms: _242  and  _245
REMARK   98  A    between atoms: _245  and  _246
REMARK   99  A    between atoms: _251  and  _252
REMARK  100  A    between atoms: _254  and  _256
REMARK  101  A    between atoms: _256  and  _257
REMARK  102  A    between atoms: _260  and  _262
REMARK  103  A    between atoms: _262  and  _263
REMARK  104  A    between atoms: _262  and  _265
REMARK  105  A    between atoms: _265  and  _266
REMARK  106  A    between atoms: _266  and  _267
REMARK  107  A    between atoms: _270  and  _272
REMARK  108  A    between atoms: _272  and  _273
REMARK  109  A    between atoms: _272  and  _275
REMARK  110  A    between atoms: _275  and  _276
REMARK  111  A    between atoms: _281  and  _283
REMARK  112  A    between atoms: _283  and  _284
REMARK  113  A    between atoms: _283  and  _286
REMARK  114  A    between atoms: _286  and  _287
REMARK  115  A    between atoms: _293  and  _295
REMARK  116  A    between atoms: _295  and  _296
REMARK  117  A    between atoms: _298  and  _300
REMARK  118  A    between atoms: _300  and  _301
REMARK  119  A    between atoms: _300  and  _303
REMARK  120  A    between atoms: _303  and  _304
REMARK  121  A    between atoms: _309  and  _310
REMARK  122  A    between atoms: _312  and  _314
REMARK  123  A    between atoms: _314  and  _315
REMARK  124  A    between atoms: _314  and  _317
REMARK  125  A    between atoms: _317  and  _318
REMARK  126  A    between atoms: _321  and  _323
REMARK  127  A    between atoms: _323  and  _324
REMARK  128  A    between atoms: _323  and  _326
REMARK  129  A    between atoms: _326  and  _327
REMARK  130  A    between atoms: _332  and  _334
REMARK  131  A    between atoms: _334  and  _335
REMARK  132  A    between atoms: _334  and  _337
REMARK  133  A    between atoms: _337  and  _338
REMARK  134  A    between atoms: _343  and  _344
REMARK  135  A    between atoms: _346  and  _348
REMARK  136  A    between atoms: _348  and  _349
REMARK  137  A    between atoms: _348  and  _351
REMARK  138  A    between atoms: _351  and  _352
REMARK  139  A    between atoms: _355  and  _357
REMARK  140  A    between atoms: _357  and  _358
REMARK                            x       y       z     vdW  Elec       q    Type
REMARK                         _______ _______ _______ _____ _____    ______ ____
ROOT
ATOM      1  C   THR A   2      55.533  32.679  37.544  0.00  0.00    +0.243 C 
ATOM      2  N   ASN A   3      55.757  32.594  38.838  0.00  0.00    -0.297 N 
ATOM      3  H   ASN A   3      55.305  33.272  39.484  0.00  0.00    +0.150 HD
ATOM      4  O   THR A   2      56.256  32.137  36.721  0.00  0.00    -0.273 OA
ENDROOT
BRANCH   2   5
ATOM      5  CA  ASN A   3      56.630  31.562  39.373  0.00  0.00    +0.158 C 
BRANCH   5   6
ATOM      6  C   ASN A   3      56.053  30.157  39.078  0.00  0.00    +0.241 C 
ATOM      7  N   ASN A   4      56.914  29.147  39.242  0.00  0.00    -0.298 N 
ATOM      8  H   ASN A   4      57.814  29.340  39.726  0.00  0.00    +0.150 HD
ATOM      9  O   ASN A   3      54.869  30.010  38.736  0.00  0.00    -0.273 OA
BRANCH   7  10
ATOM     10  CA  ASN A   4      56.658  27.792  38.779  0.00  0.00    +0.146 C 
BRANCH  10  11
ATOM     11  C   ASN A   4      55.549  27.032  39.562  0.00  0.00    +0.227 C 
ATOM     12  O   ASN A   4      55.082  25.984  39.108  0.00  0.00    -0.286 OA
ENDBRANCH  10  11
BRANCH  10  13
ATOM     13  CB  ASN A   4      57.921  26.943  38.882  0.00  0.00    +0.112 C 
BRANCH  13  14
ATOM     14  CG  ASN A   4      58.927  27.143  37.763  0.00  0.00    +0.222 C 
ATOM     15  OD1 ASN A   4      60.045  26.627  37.876  0.00  0.00    -0.275 OA
ATOM     16  ND2 ASN A   4      58.569  27.850  36.682  0.00  0.00    -0.329 N 
ATOM     17 HD21 ASN A   4      57.618  28.268  36.626  0.00  0.00    +0.145 HD
ATOM     18 HD22 ASN A   4      59.242  27.980  35.900  0.00  0.00    +0.145 HD
ENDBRANCH  13  14
ENDBRANCH  10  13
ENDBRANCH   7  10
ENDBRANCH   5   6
BRANCH   5  19
ATOM     19  CB  ASN A   3      56.878  31.798  40.868  0.00  0.00    +0.114 C 
BRANCH  19  20
ATOM     20  CG  ASN A   3      57.916  32.886  41.102  0.00  0.00    +0.222 C 
ATOM     21  ND2 ASN A   3      57.533  33.941  41.771  0.00  0.00    -0.329 N 
ATOM     22 HD21 ASN A   3      56.550  34.019  42.101  0.00  0.00    +0.145 HD
ATOM     23 HD22 ASN A   3      58.211  34.703  41.973  0.00  0.00    +0.145 HD
ATOM     24  OD1 ASN A   3      59.073  32.747  40.688  0.00  0.00    -0.275 OA
ENDBRANCH  19  20
ENDBRANCH   5  19
ENDBRANCH   2   5
BRANCH   1  25
ATOM     25  CA  THR A   2      54.291  33.463  37.149  0.00  0.00    +0.176 C 
BRANCH  25  28
ATOM     26  C   GLN A   1      55.192  34.724  35.299  0.00  0.00    +0.238 C 
ATOM     27  O   GLN A   1      55.961  35.366  36.041  0.00  0.00    -0.274 OA
ATOM     28  N   THR A   2      54.324  33.832  35.749  0.00  0.00    -0.295 N 
ATOM     29  H   THR A   2      53.655  33.389  35.087  0.00  0.00    +0.150 HD
BRANCH  26  30
ATOM     30  CA  GLN A   1      55.174  34.956  33.785  0.00  0.00    +0.145 C 
BRANCH  30  31
ATOM     31  N   GLN A   1      55.285  36.391  33.526  0.00  0.00    -0.238 NA
ATOM     32  H   GLN A   1      56.127  36.907  33.852  0.00  0.00    +0.142 HD
ENDBRANCH  30  31
BRANCH  30  33
ATOM     33  CB  GLN A   1      56.264  34.158  33.091  0.00  0.00    +0.036 C 
BRANCH  33  34
ATOM     34  CG  GLN A   1      56.139  32.666  33.407  0.00  0.00    +0.087 C 
BRANCH  34  35
ATOM     35  CD  GLN A   1      57.018  31.726  32.586  0.00  0.00    +0.219 C 
ATOM     36  NE2 GLN A   1      57.238  30.561  33.126  0.00  0.00    -0.329 N 
ATOM     37 HE21 GLN A   1      56.855  30.344  34.068  0.00  0.00    +0.145 HD
ATOM     38 HE22 GLN A   1      57.796  29.848  32.615  0.00  0.00    +0.145 HD
ATOM     39  OE1 GLN A   1      57.449  32.032  31.473  0.00  0.00    -0.275 OA
ENDBRANCH  34  35
ENDBRANCH  33  34
ENDBRANCH  30  33
ENDBRANCH  26  30
ENDBRANCH  25  28
BRANCH  25  40
ATOM     40  CB  THR A   2      53.080  32.578  37.499  0.00  0.00    +0.137 C 
ATOM     41  CG2 THR A   2      51.790  33.246  37.105  0.00  0.00    +0.034 C 
BRANCH  40  42
ATOM     42  OG1 THR A   2      53.192  31.297  36.854  0.00  0.00    -0.382 OA
ATOM     43  HG1 THR A   2      54.020  30.847  37.158  0.00  0.00    +0.210 HD
ENDBRANCH  40  42
ENDBRANCH  25  40
ENDBRANCH   1  25
TORSDOF 17
REMARK  Name = ../refined-set-2016/4d1j/4d1j_pocket.pdb
REMARK  140 active torsions:
REMARK  status: ('A' for Active; 'I' for Inactive)
REMARK    1  A    between atoms: _1  and  _3
REMARK    2  A    between atoms: _3  and  _4
REMARK    3  A    between atoms: _3  and  _6
REMARK    4  A    between atoms: _6  and  _7
REMARK    5  A    between atoms: _7  and  _8
REMARK    6  A    between atoms: _13  and  _15
REMARK    7  A    between atoms: _15  and  _16
REMARK    8  A    between atoms: _15  and  _18
REMARK    9  A    between atoms: _18  and  _19
REMARK   10  A    between atoms: _22  and  _24
REMARK   11  A    between atoms: _24  and  _25
REMARK   12  A    between atoms: _24  and  _27
REMARK   13  A    between atoms: _27  and  _28
REMARK   14  A    between atoms: _33  and  _35
REMARK   15  A    between atoms: _35  and  _36
REMARK   16  A    between atoms: _35  and  _38
REMARK   17  A    between atoms: _38  and  _39
REMARK   18  A    between atoms: _45  and  _46
REMARK   19  A    between atoms: _51  and  _53
REMARK   20  A    between atoms: _53  and  _54
REMARK   21  A    between atoms: _53  and  _56
REMARK   22  A    between atoms: _56  and  _57
REMARK   23  A    between atoms: _60  and  _62
REMARK   24  A    between atoms: _62  and  _63
REMARK   25  A    between atoms: _62  and  _65
REMARK   26  A    between atoms: _65  and  _66
REMARK   27  A    between atoms: _72  and  _74
REMARK   28  A    between atoms: _74  and  _75
REMARK   29  A    between atoms: _74  and  _77
REMARK   30  A    between atoms: _77  and  _78
REMARK   31  A    between atoms: _78  and  _79
REMARK   32  A    between atoms: _79  and  _80
REMARK   33  A    between atoms: _80  and  _81
REMARK   34  A    between atoms: _85  and  _87
REMARK   35  A    between atoms: _87  and  _88
REMARK   36  A    between atoms: _87  and  _90
REMARK   37  A    between atoms: _90  and  _91
REMARK   38  A    between atoms: _96  and  _98
REMARK   39  A    between atoms: _98  and  _99
REMARK   40  A    between atoms: _98  and  _101
REMARK   41  A    between atoms: _101  and  _102
REMARK   42  A    between atoms: _107  and  _109
REMARK   43  A    between atoms: _109  and  _110
REMARK   44  A    between atoms: _109  and  _112
REMARK   45  A    between atoms: _112  and  _113
REMARK   46  A    between atoms: _118  and  _119
REMARK   47  A    between atoms: _121  and  _123
REMARK   48  A    between atoms: _123  and  _124
REMARK   49  A    between atoms: _123  and  _126
REMARK   50  A    between atoms: _126  and  _127
REMARK   51  A    between atoms: _127  and  _128
REMARK   52  A    between atoms: _133  and  _135
REMARK   53  A    between atoms: _135  and  _136
REMARK   54  A    between atoms: _135  and  _138
REMARK   55  A    between atoms: _138  and  _139
REMARK   56  A    between atoms: _139  and  _140
REMARK   57  A    between atoms: _145  and  _147
REMARK   58  A    between atoms: _147  and  _148
REMARK   59  A    between atoms: _147  and  _150
REMARK   60  A    between atoms: _150  and  _151
REMARK   61  A    between atoms: _156  and  _158
REMARK   62  A    between atoms: _158  and  _159
REMARK   63  A    between atoms: _158  and  _161
REMARK   64  A    between atoms: _161  and  _162
REMARK   65  A    between atoms: _162  and  _163
REMARK   66  A    between atoms: _166  and  _168
REMARK   67  A    between atoms: _168  and  _169
REMARK   68  A    between atoms: _168  and  _171
REMARK   69  A    between atoms: _174  and  _176
REMARK   70  A    between atoms: _176  and  _177
REMARK   71  A    between atoms: _176  and  _179
REMARK   72  A    between atoms: _179  and  _180
REMARK   73  A    between atoms: _185  and  _186
REMARK   74  A    between atoms: _188  and  _190
REMARK   75  A    between atoms: _190  and  _191
REMARK   76  A    between atoms: _190  and  _193
REMARK   77  A    between atoms: _193  and  _194
REMARK   78  A    between atoms: _199  and  _201
REMARK   79  A    between atoms: _201  and  _202
REMARK   80  A    between atoms: _201  and  _204
REMARK   81  A    between atoms: _207  and  _209
REMARK   82  A    between atoms: _209  and  _210
REMARK   83  A    between atoms: _213  and  _215
REMARK   84  A    between atoms: _215  and  _216
REMARK   85  A    between atoms: _215  and  _218
REMARK   86  A    between atoms: _218  and  _219
REMARK   87  A    between atoms: _222  and  _224
REMARK   88  A    between atoms: _224  and  _225
REMARK   89  A    between atoms: _224  and  _227
REMARK   90  A    between atoms: _227  and  _228
REMARK   91  A    between atoms: _231  and  _233
REMARK   92  A    between atoms: _233  and  _234
REMARK   93  A    between atoms: _233  and  _236
REMARK   94  A    between atoms: _236  and  _237
REMARK   95  A    between atoms: _240  and  _242
REMARK   96  A    between atoms: _242  and  _243
REMARK   97  A    between atoms: _242  and  _245
REMARK   98  A    between atoms: _245  and  _246
REMARK   99  A    between atoms: _251  and  _252
REMARK  100  A    between atoms: _254  and  _256
REMARK  101  A    between atoms: _256  and  _257
REMARK  102  A    between atoms: _260  and  _262
REMARK  103  A    between atoms: _262  and  _263
REMARK  104  A    between atoms: _262  and  _265
REMARK  105  A    between atoms: _265  and  _266
REMARK  106  A    between atoms: _266  and  _267
REMARK  107  A    between atoms: _270  and  _272
REMARK  108  A    between atoms: _272  and  _273
REMARK  109  A    between atoms: _272  and  _275
REMARK  110  A    between atoms: _275  and  _276
REMARK  111  A    between atoms: _281  and  _283
REMARK  112  A    between atoms: _283  and  _284
REMARK  113  A    between atoms: _283  and  _286
REMARK  114  A    between atoms: _286  and  _287
REMARK  115  A    between atoms: _293  and  _295
REMARK  116  A    between atoms: _295  and  _296
REMARK  117  A    between atoms: _298  and  _300
REMARK  118  A    between atoms: _300  and  _301
REMARK  119  A    between atoms: _300  and  _303
REMARK  120  A    between atoms: _303  and  _304
REMARK  121  A    between atoms: _309  and  _310
REMARK  122  A    between atoms: _312  and  _314
REMARK  123  A    between atoms: _314  and  _315
REMARK  124  A    between atoms: _314  and  _317
REMARK  125  A    between atoms: _317  and  _318
REMARK  126  A    between atoms: _321  and  _323
REMARK  127  A    between atoms: _323  and  _324
REMARK  128  A    between atoms: _323  and  _326
REMARK  129  A    between atoms: _326  and  _327
REMARK  130  A    between atoms: _332  and  _334
REMARK  131  A    between atoms: _334  and  _335
REMARK  132  A    between atoms: _334  and  _337
REMARK  133  A    between atoms: _337  and  _338
REMARK  134  A    between atoms: _343  and  _344
REMARK  135  A    between atoms: _346  and  _348
REMARK  136  A    between atoms: _348  and  _349
REMARK  137  A    between atoms: _348  and  _351
REMARK  138  A    between atoms: _351  and  _352
REMARK  139  A    between atoms: _355  and  _357
REMARK  140  A    between atoms: _357  and  _358
REMARK                            x       y       z     vdW  Elec       q    Type
REMARK                         _______ _______ _______ _____ _____    ______ ____
ROOT
ATOM      1  N   PRO A   1      51.965  28.139  33.927  0.00  0.00    -0.212 NA
ATOM      2  CD  PRO A   1      52.738  28.413  35.158  0.00  0.00    +0.089 C 
ATOM      3  CG  PRO A   1      53.657  27.233  35.248  0.00  0.00    +0.021 C 
ATOM      4  CB  PRO A   1      52.820  26.082  34.691  0.00  0.00    +0.027 C 
ATOM      5  CA  PRO A   1      51.951  26.710  33.602  0.00  0.00    +0.137 C 
ENDROOT
BRANCH   5   6
ATOM      6  C   PRO A   1      50.588  26.047  33.645  0.00  0.00    +0.224 C 
ATOM      7  O   PRO A   1      49.718  26.447  34.417  0.00  0.00    -0.287 OA
ENDBRANCH   5   6
TORSDOF 1
REMARK  Name = ../refined-set-2016/4d1j/4d1j_pocket.pdb
REMARK  140 active torsions:
REMARK  status: ('A' for Active; 'I' for Inactive)
REMARK    1  A    between atoms: _1  and  _3
REMARK    2  A    between atoms: _3  and  _4
REMARK    3  A    between atoms: _3  and  _6
REMARK    4  A    between atoms: _6  and  _7
REMARK    5  A    between atoms: _7  and  _8
REMARK    6  A    between atoms: _13  and  _15
REMARK    7  A    between atoms: _15  and  _16
REMARK    8  A    between atoms: _15  and  _18
REMARK    9  A    between atoms: _18  and  _19
REMARK   10  A    between atoms: _22  and  _24
REMARK   11  A    between atoms: _24  and  _25
REMARK   12  A    between atoms: _24  and  _27
REMARK   13  A    between atoms: _27  and  _28
REMARK   14  A    between atoms: _33  and  _35
REMARK   15  A    between atoms: _35  and  _36
REMARK   16  A    between atoms: _35  and  _38
REMARK   17  A    between atoms: _38  and  _39
REMARK   18  A    between atoms: _45  and  _46
REMARK   19  A    between atoms: _51  and  _53
REMARK   20  A    between atoms: _53  and  _54
REMARK   21  A    between atoms: _53  and  _56
REMARK   22  A    between atoms: _56  and  _57
REMARK   23  A    between atoms: _60  and  _62
REMARK   24  A    between atoms: _62  and  _63
REMARK   25  A    between atoms: _62  and  _65
REMARK   26  A    between atoms: _65  and  _66
REMARK   27  A    between atoms: _72  and  _74
REMARK   28  A    between atoms: _74  and  _75
REMARK   29  A    between atoms: _74  and  _77
REMARK   30  A    between atoms: _77  and  _78
REMARK   31  A    between atoms: _78  and  _79
REMARK   32  A    between atoms: _79  and  _80
REMARK   33  A    between atoms: _80  and  _81
REMARK   34  A    between atoms: _85  and  _87
REMARK   35  A    between atoms: _87  and  _88
REMARK   36  A    between atoms: _87  and  _90
REMARK   37  A    between atoms: _90  and  _91
REMARK   38  A    between atoms: _96  and  _98
REMARK   39  A    between atoms: _98  and  _99
REMARK   40  A    between atoms: _98  and  _101
REMARK   41  A    between atoms: _101  and  _102
REMARK   42  A    between atoms: _107  and  _109
REMARK   43  A    between atoms: _109  and  _110
REMARK   44  A    between atoms: _109  and  _112
REMARK   45  A    between atoms: _112  and  _113
REMARK   46  A    between atoms: _118  and  _119
REMARK   47  A    between atoms: _121  and  _123
REMARK   48  A    between atoms: _123  and  _124
REMARK   49  A    between atoms: _123  and  _126
REMARK   50  A    between atoms: _126  and  _127
REMARK   51  A    between atoms: _127  and  _128
REMARK   52  A    between atoms: _133  and  _135
REMARK   53  A    between atoms: _135  and  _136
REMARK   54  A    between atoms: _135  and  _138
REMARK   55  A    between atoms: _138  and  _139
REMARK   56  A    between atoms: _139  and  _140
REMARK   57  A    between atoms: _145  and  _147
REMARK   58  A    between atoms: _147  and  _148
REMARK   59  A    between atoms: _147  and  _150
REMARK   60  A    between atoms: _150  and  _151
REMARK   61  A    between atoms: _156  and  _158
REMARK   62  A    between atoms: _158  and  _159
REMARK   63  A    between atoms: _158  and  _161
REMARK   64  A    between atoms: _161  and  _162
REMARK   65  A    between atoms: _162  and  _163
REMARK   66  A    between atoms: _166  and  _168
REMARK   67  A    between atoms: _168  and  _169
REMARK   68  A    between atoms: _168  and  _171
REMARK   69  A    between atoms: _174  and  _176
REMARK   70  A    between atoms: _176  and  _177
REMARK   71  A    between atoms: _176  and  _179
REMARK   72  A    between atoms: _179  and  _180
REMARK   73  A    between atoms: _185  and  _186
REMARK   74  A    between atoms: _188  and  _190
REMARK   75  A    between atoms: _190  and  _191
REMARK   76  A    between atoms: _190  and  _193
REMARK   77  A    between atoms: _193  and  _194
REMARK   78  A    between atoms: _199  and  _201
REMARK   79  A    between atoms: _201  and  _202
REMARK   80  A    between atoms: _201  and  _204
REMARK   81  A    between atoms: _207  and  _209
REMARK   82  A    between atoms: _209  and  _210
REMARK   83  A    between atoms: _213  and  _215
REMARK   84  A    between atoms: _215  and  _216
REMARK   85  A    between atoms: _215  and  _218
REMARK   86  A    between atoms: _218  and  _219
REMARK   87  A    between atoms: _222  and  _224
REMARK   88  A    between atoms: _224  and  _225
REMARK   89  A    between atoms: _224  and  _227
REMARK   90  A    between atoms: _227  and  _228
REMARK   91  A    between atoms: _231  and  _233
REMARK   92  A    between atoms: _233  and  _234
REMARK   93  A    between atoms: _233  and  _236
REMARK   94  A    between atoms: _236  and  _237
REMARK   95  A    between atoms: _240  and  _242
REMARK   96  A    between atoms: _242  and  _243
REMARK   97  A    between atoms: _242  and  _245
REMARK   98  A    between atoms: _245  and  _246
REMARK   99  A    between atoms: _251  and  _252
REMARK  100  A    between atoms: _254  and  _256
REMARK  101  A    between atoms: _256  and  _257
REMARK  102  A    between atoms: _260  and  _262
REMARK  103  A    between atoms: _262  and  _263
REMARK  104  A    between atoms: _262  and  _265
REMARK  105  A    between atoms: _265  and  _266
REMARK  106  A    between atoms: _266  and  _267
REMARK  107  A    between atoms: _270  and  _272
REMARK  108  A    between atoms: _272  and  _273
REMARK  109  A    between atoms: _272  and  _275
REMARK  110  A    between atoms: _275  and  _276
REMARK  111  A    between atoms: _281  and  _283
REMARK  112  A    between atoms: _283  and  _284
REMARK  113  A    between atoms: _283  and  _286
REMARK  114  A    between atoms: _286  and  _287
REMARK  115  A    between atoms: _293  and  _295
REMARK  116  A    between atoms: _295  and  _296
REMARK  117  A    between atoms: _298  and  _300
REMARK  118  A    between atoms: _300  and  _301
REMARK  119  A    between atoms: _300  and  _303
REMARK  120  A    between atoms: _303  and  _304
REMARK  121  A    between atoms: _309  and  _310
REMARK  122  A    between atoms: _312  and  _314
REMARK  123  A    between atoms: _314  and  _315
REMARK  124  A    between atoms: _314  and  _317
REMARK  125  A    between atoms: _317  and  _318
REMARK  126  A    between atoms: _321  and  _323
REMARK  127  A    between atoms: _323  and  _324
REMARK  128  A    between atoms: _323  and  _326
REMARK  129  A    between atoms: _326  and  _327
REMARK  130  A    between atoms: _332  and  _334
REMARK  131  A    between atoms: _334  and  _335
REMARK  132  A    between atoms: _334  and  _337
REMARK  133  A    between atoms: _337  and  _338
REMARK  134  A    between atoms: _343  and  _344
REMARK  135  A    between atoms: _346  and  _348
REMARK  136  A    between atoms: _348  and  _349
REMARK  137  A    between atoms: _348  and  _351
REMARK  138  A    between atoms: _351  and  _352
REMARK  139  A    between atoms: _355  and  _357
REMARK  140  A    between atoms: _357  and  _358
REMARK                            x       y       z     vdW  Elec       q    Type
REMARK                         _______ _______ _______ _____ _____    ______ ____
ROOT
ATOM      1  CA  LEU A   1      52.916  26.578  29.361  0.00  0.00    +0.133 C 
ENDROOT
BRANCH   1   2
ATOM      2  N   LEU A   1      51.648  27.276  29.454  0.00  0.00    -0.239 NA
ATOM      3  H   LEU A   1      51.244  27.462  30.394  0.00  0.00    +0.142 HD
ENDBRANCH   1   2
BRANCH   1   4
ATOM      4  C   LEU A   1      52.703  25.112  29.725  0.00  0.00    +0.224 C 
ATOM      5  O   LEU A   1      52.477  24.785  30.872  0.00  0.00    -0.287 OA
ENDBRANCH   1   4
BRANCH   1   6
ATOM      6  CB  LEU A   1      53.972  27.240  30.284  0.00  0.00    +0.025 C 
BRANCH   6   7
ATOM      7  CG  LEU A   1      53.994  28.782  30.305  0.00  0.00    +0.002 C 
ATOM      8  CD2 LEU A   1      54.937  29.272  31.394  0.00  0.00    +0.000 C 
ATOM      9  CD1 LEU A   1      54.427  29.340  28.948  0.00  0.00    +0.000 C 
ENDBRANCH   6   7
ENDBRANCH   1   6
TORSDOF 4
REMARK  Name = ../refined-set-2016/4d1j/4d1j_pocket.pdb
REMARK  140 active torsions:
REMARK  status: ('A' for Active; 'I' for Inactive)
REMARK    1  A    between atoms: _1  and  _3
REMARK    2  A    between atoms: _3  and  _4
REMARK    3  A    between atoms: _3  and  _6
REMARK    4  A    between atoms: _6  and  _7
REMARK    5  A    between atoms: _7  and  _8
REMARK    6  A    between atoms: _13  and  _15
REMARK    7  A    between atoms: _15  and  _16
REMARK    8  A    between atoms: _15  and  _18
REMARK    9  A    between atoms: _18  and  _19
REMARK   10  A    between atoms: _22  and  _24
REMARK   11  A    between atoms: _24  and  _25
REMARK   12  A    between atoms: _24  and  _27
REMARK   13  A    between atoms: _27  and  _28
REMARK   14  A    between atoms: _33  and  _35
REMARK   15  A    between atoms: _35  and  _36
REMARK   16  A    between atoms: _35  and  _38
REMARK   17  A    between atoms: _38  and  _39
REMARK   18  A    between atoms: _45  and  _46
REMARK   19  A    between atoms: _51  and  _53
REMARK   20  A    between atoms: _53  and  _54
REMARK   21  A    between atoms: _53  and  _56
REMARK   22  A    between atoms: _56  and  _57
REMARK   23  A    between atoms: _60  and  _62
REMARK   24  A    between atoms: _62  and  _63
REMARK   25  A    between atoms: _62  and  _65
REMARK   26  A    between atoms: _65  and  _66
REMARK   27  A    between atoms: _72  and  _74
REMARK   28  A    between atoms: _74  and  _75
REMARK   29  A    between atoms: _74  and  _77
REMARK   30  A    between atoms: _77  and  _78
REMARK   31  A    between atoms: _78  and  _79
REMARK   32  A    between atoms: _79  and  _80
REMARK   33  A    between atoms: _80  and  _81
REMARK   34  A    between atoms: _85  and  _87
REMARK   35  A    between atoms: _87  and  _88
REMARK   36  A    between atoms: _87  and  _90
REMARK   37  A    between atoms: _90  and  _91
REMARK   38  A    between atoms: _96  and  _98
REMARK   39  A    between atoms: _98  and  _99
REMARK   40  A    between atoms: _98  and  _101
REMARK   41  A    between atoms: _101  and  _102
REMARK   42  A    between atoms: _107  and  _109
REMARK   43  A    between atoms: _109  and  _110
REMARK   44  A    between atoms: _109  and  _112
REMARK   45  A    between atoms: _112  and  _113
REMARK   46  A    between atoms: _118  and  _119
REMARK   47  A    between atoms: _121  and  _123
REMARK   48  A    between atoms: _123  and  _124
REMARK   49  A    between atoms: _123  and  _126
REMARK   50  A    between atoms: _126  and  _127
REMARK   51  A    between atoms: _127  and  _128
REMARK   52  A    between atoms: _133  and  _135
REMARK   53  A    between atoms: _135  and  _136
REMARK   54  A    between atoms: _135  and  _138
REMARK   55  A    between atoms: _138  and  _139
REMARK   56  A    between atoms: _139  and  _140
REMARK   57  A    between atoms: _145  and  _147
REMARK   58  A    between atoms: _147  and  _148
REMARK   59  A    between atoms: _147  and  _150
REMARK   60  A    between atoms: _150  and  _151
REMARK   61  A    between atoms: _156  and  _158
REMARK   62  A    between atoms: _158  and  _159
REMARK   63  A    between atoms: _158  and  _161
REMARK   64  A    between atoms: _161  and  _162
REMARK   65  A    between atoms: _162  and  _163
REMARK   66  A    between atoms: _166  and  _168
REMARK   67  A    between atoms: _168  and  _169
REMARK   68  A    between atoms: _168  and  _171
REMARK   69  A    between atoms: _174  and  _176
REMARK   70  A    between atoms: _176  and  _177
REMARK   71  A    between atoms: _176  and  _179
REMARK   72  A    between atoms: _179  and  _180
REMARK   73  A    between atoms: _185  and  _186
REMARK   74  A    between atoms: _188  and  _190
REMARK   75  A    between atoms: _190  and  _191
REMARK   76  A    between atoms: _190  and  _193
REMARK   77  A    between atoms: _193  and  _194
REMARK   78  A    between atoms: _199  and  _201
REMARK   79  A    between atoms: _201  and  _202
REMARK   80  A    between atoms: _201  and  _204
REMARK   81  A    between atoms: _207  and  _209
REMARK   82  A    between atoms: _209  and  _210
REMARK   83  A    between atoms: _213  and  _215
REMARK   84  A    between atoms: _215  and  _216
REMARK   85  A    between atoms: _215  and  _218
REMARK   86  A    between atoms: _218  and  _219
REMARK   87  A    between atoms: _222  and  _224
REMARK   88  A    between atoms: _224  and  _225
REMARK   89  A    between atoms: _224  and  _227
REMARK   90  A    between atoms: _227  and  _228
REMARK   91  A    between atoms: _231  and  _233
REMARK   92  A    between atoms: _233  and  _234
REMARK   93  A    between atoms: _233  and  _236
REMARK   94  A    between atoms: _236  and  _237
REMARK   95  A    between atoms: _240  and  _242
REMARK   96  A    between atoms: _242  and  _243
REMARK   97  A    between atoms: _242  and  _245
REMARK   98  A    between atoms: _245  and  _246
REMARK   99  A    between atoms: _251  and  _252
REMARK  100  A    between atoms: _254  and  _256
REMARK  101  A    between atoms: _256  and  _257
REMARK  102  A    between atoms: _260  and  _262
REMARK  103  A    between atoms: _262  and  _263
REMARK  104  A    between atoms: _262  and  _265
REMARK  105  A    between atoms: _265  and  _266
REMARK  106  A    between atoms: _266  and  _267
REMARK  107  A    between atoms: _270  and  _272
REMARK  108  A    between atoms: _272  and  _273
REMARK  109  A    between atoms: _272  and  _275
REMARK  110  A    between atoms: _275  and  _276
REMARK  111  A    between atoms: _281  and  _283
REMARK  112  A    between atoms: _283  and  _284
REMARK  113  A    between atoms: _283  and  _286
REMARK  114  A    between atoms: _286  and  _287
REMARK  115  A    between atoms: _293  and  _295
REMARK  116  A    between atoms: _295  and  _296
REMARK  117  A    between atoms: _298  and  _300
REMARK  118  A    between atoms: _300  and  _301
REMARK  119  A    between atoms: _300  and  _303
REMARK  120  A    between atoms: _303  and  _304
REMARK  121  A    between atoms: _309  and  _310
REMARK  122  A    between atoms: _312  and  _314
REMARK  123  A    between atoms: _314  and  _315
REMARK  124  A    between atoms: _314  and  _317
REMARK  125  A    between atoms: _317  and  _318
REMARK  126  A    between atoms: _321  and  _323
REMARK  127  A    between atoms: _323  and  _324
REMARK  128  A    between atoms: _323  and  _326
REMARK  129  A    between atoms: _326  and  _327
REMARK  130  A    between atoms: _332  and  _334
REMARK  131  A    between atoms: _334  and  _335
REMARK  132  A    between atoms: _334  and  _337
REMARK  133  A    between atoms: _337  and  _338
REMARK  134  A    between atoms: _343  and  _344
REMARK  135  A    between atoms: _346  and  _348
REMARK  136  A    between atoms: _348  and  _349
REMARK  137  A    between atoms: _348  and  _351
REMARK  138  A    between atoms: _351  and  _352
REMARK  139  A    between atoms: _355  and  _357
REMARK  140  A    between atoms: _357  and  _358
REMARK                            x       y       z     vdW  Elec       q    Type
REMARK                         _______ _______ _______ _____ _____    ______ ____
ROOT
ATOM      1  CB  PHE A   1      54.866  21.882  33.035  0.00  0.00    +0.051 C 
ENDROOT
BRANCH   1   2
ATOM      2  CG  PHE A   1      55.491  23.230  33.223  0.00  0.00    -0.020 A 
ATOM      3  CD2 PHE A   1      55.737  23.695  34.511  0.00  0.00    -0.004 A 
ATOM      4  CE2 PHE A   1      56.297  24.953  34.743  0.00  0.00    -0.000 A 
ATOM      5  CZ  PHE A   1      56.595  25.787  33.668  0.00  0.00    -0.000 A 
ATOM      6  CE1 PHE A   1      56.308  25.366  32.383  0.00  0.00    -0.000 A 
ATOM      7  CD1 PHE A   1      55.752  24.104  32.156  0.00  0.00    -0.004 A 
ENDBRANCH   1   2
BRANCH   1   8
ATOM      8  CA  PHE A   1      54.819  21.362  31.582  0.00  0.00    +0.137 C 
BRANCH   8   9
ATOM      9  N   PHE A   1      53.734  21.963  30.835  0.00  0.00    -0.239 NA
ATOM     10  H   PHE A   1      52.877  22.243  31.354  0.00  0.00    +0.142 HD
ENDBRANCH   8   9
BRANCH   8  11
ATOM     11  C   PHE A   1      54.525  19.851  31.636  0.00  0.00    +0.224 C 
ATOM     12  O   PHE A   1      53.592  19.414  32.329  0.00  0.00    -0.287 OA
ENDBRANCH   8  11
ENDBRANCH   1   8
TORSDOF 4
REMARK  Name = ../refined-set-2016/4d1j/4d1j_pocket.pdb
REMARK  140 active torsions:
REMARK  status: ('A' for Active; 'I' for Inactive)
REMARK    1  A    between atoms: _1  and  _3
REMARK    2  A    between atoms: _3  and  _4
REMARK    3  A    between atoms: _3  and  _6
REMARK    4  A    between atoms: _6  and  _7
REMARK    5  A    between atoms: _7  and  _8
REMARK    6  A    between atoms: _13  and  _15
REMARK    7  A    between atoms: _15  and  _16
REMARK    8  A    between atoms: _15  and  _18
REMARK    9  A    between atoms: _18  and  _19
REMARK   10  A    between atoms: _22  and  _24
REMARK   11  A    between atoms: _24  and  _25
REMARK   12  A    between atoms: _24  and  _27
REMARK   13  A    between atoms: _27  and  _28
REMARK   14  A    between atoms: _33  and  _35
REMARK   15  A    between atoms: _35  and  _36
REMARK   16  A    between atoms: _35  and  _38
REMARK   17  A    between atoms: _38  and  _39
REMARK   18  A    between atoms: _45  and  _46
REMARK   19  A    between atoms: _51  and  _53
REMARK   20  A    between atoms: _53  and  _54
REMARK   21  A    between atoms: _53  and  _56
REMARK   22  A    between atoms: _56  and  _57
REMARK   23  A    between atoms: _60  and  _62
REMARK   24  A    between atoms: _62  and  _63
REMARK   25  A    between atoms: _62  and  _65
REMARK   26  A    between atoms: _65  and  _66
REMARK   27  A    between atoms: _72  and  _74
REMARK   28  A    between atoms: _74  and  _75
REMARK   29  A    between atoms: _74  and  _77
REMARK   30  A    between atoms: _77  and  _78
REMARK   31  A    between atoms: _78  and  _79
REMARK   32  A    between atoms: _79  and  _80
REMARK   33  A    between atoms: _80  and  _81
REMARK   34  A    between atoms: _85  and  _87
REMARK   35  A    between atoms: _87  and  _88
REMARK   36  A    between atoms: _87  and  _90
REMARK   37  A    between atoms: _90  and  _91
REMARK   38  A    between atoms: _96  and  _98
REMARK   39  A    between atoms: _98  and  _99
REMARK   40  A    between atoms: _98  and  _101
REMARK   41  A    between atoms: _101  and  _102
REMARK   42  A    between atoms: _107  and  _109
REMARK   43  A    between atoms: _109  and  _110
REMARK   44  A    between atoms: _109  and  _112
REMARK   45  A    between atoms: _112  and  _113
REMARK   46  A    between atoms: _118  and  _119
REMARK   47  A    between atoms: _121  and  _123
REMARK   48  A    between atoms: _123  and  _124
REMARK   49  A    between atoms: _123  and  _126
REMARK   50  A    between atoms: _126  and  _127
REMARK   51  A    between atoms: _127  and  _128
REMARK   52  A    between atoms: _133  and  _135
REMARK   53  A    between atoms: _135  and  _136
REMARK   54  A    between atoms: _135  and  _138
REMARK   55  A    between atoms: _138  and  _139
REMARK   56  A    between atoms: _139  and  _140
REMARK   57  A    between atoms: _145  and  _147
REMARK   58  A    between atoms: _147  and  _148
REMARK   59  A    between atoms: _147  and  _150
REMARK   60  A    between atoms: _150  and  _151
REMARK   61  A    between atoms: _156  and  _158
REMARK   62  A    between atoms: _158  and  _159
REMARK   63  A    between atoms: _158  and  _161
REMARK   64  A    between atoms: _161  and  _162
REMARK   65  A    between atoms: _162  and  _163
REMARK   66  A    between atoms: _166  and  _168
REMARK   67  A    between atoms: _168  and  _169
REMARK   68  A    between atoms: _168  and  _171
REMARK   69  A    between atoms: _174  and  _176
REMARK   70  A    between atoms: _176  and  _177
REMARK   71  A    between atoms: _176  and  _179
REMARK   72  A    between atoms: _179  and  _180
REMARK   73  A    between atoms: _185  and  _186
REMARK   74  A    between atoms: _188  and  _190
REMARK   75  A    between atoms: _190  and  _191
REMARK   76  A    between atoms: _190  and  _193
REMARK   77  A    between atoms: _193  and  _194
REMARK   78  A    between atoms: _199  and  _201
REMARK   79  A    between atoms: _201  and  _202
REMARK   80  A    between atoms: _201  and  _204
REMARK   81  A    between atoms: _207  and  _209
REMARK   82  A    between atoms: _209  and  _210
REMARK   83  A    between atoms: _213  and  _215
REMARK   84  A    between atoms: _215  and  _216
REMARK   85  A    between atoms: _215  and  _218
REMARK   86  A    between atoms: _218  and  _219
REMARK   87  A    between atoms: _222  and  _224
REMARK   88  A    between atoms: _224  and  _225
REMARK   89  A    between atoms: _224  and  _227
REMARK   90  A    between atoms: _227  and  _228
REMARK   91  A    between atoms: _231  and  _233
REMARK   92  A    between atoms: _233  and  _234
REMARK   93  A    between atoms: _233  and  _236
REMARK   94  A    between atoms: _236  and  _237
REMARK   95  A    between atoms: _240  and  _242
REMARK   96  A    between atoms: _242  and  _243
REMARK   97  A    between atoms: _242  and  _245
REMARK   98  A    between atoms: _245  and  _246
REMARK   99  A    between atoms: _251  and  _252
REMARK  100  A    between atoms: _254  and  _256
REMARK  101  A    between atoms: _256  and  _257
REMARK  102  A    between atoms: _260  and  _262
REMARK  103  A    between atoms: _262  and  _263
REMARK  104  A    between atoms: _262  and  _265
REMARK  105  A    between atoms: _265  and  _266
REMARK  106  A    between atoms: _266  and  _267
REMARK  107  A    between atoms: _270  and  _272
REMARK  108  A    between atoms: _272  and  _273
REMARK  109  A    between atoms: _272  and  _275
REMARK  110  A    between atoms: _275  and  _276
REMARK  111  A    between atoms: _281  and  _283
REMARK  112  A    between atoms: _283  and  _284
REMARK  113  A    between atoms: _283  and  _286
REMARK  114  A    between atoms: _286  and  _287
REMARK  115  A    between atoms: _293  and  _295
REMARK  116  A    between atoms: _295  and  _296
REMARK  117  A    between atoms: _298  and  _300
REMARK  118  A    between atoms: _300  and  _301
REMARK  119  A    between atoms: _300  and  _303
REMARK  120  A    between atoms: _303  and  _304
REMARK  121  A    between atoms: _309  and  _310
REMARK  122  A    between atoms: _312  and  _314
REMARK  123  A    between atoms: _314  and  _315
REMARK  124  A    between atoms: _314  and  _317
REMARK  125  A    between atoms: _317  and  _318
REMARK  126  A    between atoms: _321  and  _323
REMARK  127  A    between atoms: _323  and  _324
REMARK  128  A    between atoms: _323  and  _326
REMARK  129  A    between atoms: _326  and  _327
REMARK  130  A    between atoms: _332  and  _334
REMARK  131  A    between atoms: _334  and  _335
REMARK  132  A    between atoms: _334  and  _337
REMARK  133  A    between atoms: _337  and  _338
REMARK  134  A    between atoms: _343  and  _344
REMARK  135  A    between atoms: _346  and  _348
REMARK  136  A    between atoms: _348  and  _349
REMARK  137  A    between atoms: _348  and  _351
REMARK  138  A    between atoms: _351  and  _352
REMARK  139  A    between atoms: _355  and  _357
REMARK  140  A    between atoms: _357  and  _358
REMARK                            x       y       z     vdW  Elec       q    Type
REMARK                         _______ _______ _______ _____ _____    ______ ____
ROOT
ATOM      1  CA  ASN A   2      64.043  22.131  32.696  0.00  0.00    +0.158 C 
ENDROOT
BRANCH   1   4
ATOM      2  C   LYS A   1      61.823  21.066  32.929  0.00  0.00    +0.238 C 
ATOM      3  O   LYS A   1      62.205  20.334  33.864  0.00  0.00    -0.274 OA
ATOM      4  N   ASN A   2      62.606  21.978  32.351  0.00  0.00    -0.297 N 
ATOM      5  H   ASN A   2      62.195  22.606  31.631  0.00  0.00    +0.150 HD
BRANCH   2   6
ATOM      6  CA  LYS A   1      60.405  20.939  32.383  0.00  0.00    +0.145 C 
BRANCH   6   7
ATOM      7  N   LYS A   1      60.373  19.610  31.776  0.00  0.00    -0.238 NA
ATOM      8  H   LYS A   1      60.778  18.817  32.312  0.00  0.00    +0.142 HD
ENDBRANCH   6   7
BRANCH   6   9
ATOM      9  CB  LYS A   1      59.363  21.077  33.495  0.00  0.00    +0.026 C 
BRANCH   9  10
ATOM     10  CG  LYS A   1      59.056  22.499  33.934  0.00  0.00    -0.000 C 
BRANCH  10  11
ATOM     11  CD  LYS A   1      60.189  23.085  34.780  0.00  0.00    -0.024 C 
BRANCH  11  12
ATOM     12  CE  LYS A   1      59.845  24.481  35.314  0.00  0.00    -0.086 C 
BRANCH  12  13
ATOM     13  NZ  LYS A   1      61.081  25.115  35.868  0.00  0.00    +0.380 N 
ATOM     14  HZ1 LYS A   1      61.454  24.528  36.641  0.00  0.00    -0.089 HD
ATOM     15  HZ2 LYS A   1      60.851  26.062  36.231  0.00  0.00    -0.089 HD
ATOM     16  HZ3 LYS A   1      61.795  25.195  35.116  0.00  0.00    -0.089 HD
ENDBRANCH  12  13
ENDBRANCH  11  12
ENDBRANCH  10  11
ENDBRANCH   9  10
ENDBRANCH   6   9
ENDBRANCH   2   6
ENDBRANCH   1   4
BRANCH   1  17
ATOM     17  C   ASN A   2      64.737  20.767  32.654  0.00  0.00    +0.241 C 
ATOM     18  O   ASN A   2      65.418  20.375  33.600  0.00  0.00    -0.273 OA
ATOM     19  N   ASN A   3      64.529  20.049  31.555  0.00  0.00    -0.298 N 
ATOM     20  H   ASN A   3      63.858  20.422  30.853  0.00  0.00    +0.150 HD
BRANCH  19  21
ATOM     21  CA  ASN A   3      65.187  18.753  31.259  0.00  0.00    +0.146 C 
BRANCH  21  22
ATOM     22  C   ASN A   3      64.566  17.537  31.894  0.00  0.00    +0.227 C 
ATOM     23  O   ASN A   3      64.900  16.411  31.512  0.00  0.00    -0.286 OA
ENDBRANCH  21  22
BRANCH  21  24
ATOM     24  CB  ASN A   3      66.742  18.811  31.459  0.00  0.00    +0.112 C 
BRANCH  24  25
ATOM     25  CG  ASN A   3      67.278  17.871  32.535  0.00  0.00    +0.222 C 
ATOM     26  ND2 ASN A   3      66.834  17.997  33.789  0.00  0.00    -0.329 N 
ATOM     27 HD21 ASN A   3      67.191  17.364  34.533  0.00  0.00    +0.145 HD
ATOM     28 HD22 ASN A   3      66.131  18.728  34.021  0.00  0.00    +0.145 HD
ATOM     29  OD1 ASN A   3      68.111  17.018  32.217  0.00  0.00    -0.275 OA
ENDBRANCH  24  25
ENDBRANCH  21  24
ENDBRANCH  19  21
ENDBRANCH   1  17
BRANCH   1  30
ATOM     30  CB  ASN A   2      64.224  22.756  34.094  0.00  0.00    +0.114 C 
BRANCH  30  31
ATOM     31  CG  ASN A   2      63.764  24.209  34.189  0.00  0.00    +0.222 C 
ATOM     32  ND2 ASN A   2      64.367  24.944  35.107  0.00  0.00    -0.329 N 
ATOM     33 HD21 ASN A   2      65.117  24.528  35.696  0.00  0.00    +0.145 HD
ATOM     34 HD22 ASN A   2      64.092  25.938  35.241  0.00  0.00    +0.145 HD
ATOM     35  OD1 ASN A   2      62.861  24.666  33.462  0.00  0.00    -0.275 OA
ENDBRANCH  30  31
ENDBRANCH   1  30
TORSDOF 15
REMARK  Name = ../refined-set-2016/4d1j/4d1j_pocket.pdb
REMARK  140 active torsions:
REMARK  status: ('A' for Active; 'I' for Inactive)
REMARK    1  A    between atoms: _1  and  _3
REMARK    2  A    between atoms: _3  and  _4
REMARK    3  A    between atoms: _3  and  _6
REMARK    4  A    between atoms: _6  and  _7
REMARK    5  A    between atoms: _7  and  _8
REMARK    6  A    between atoms: _13  and  _15
REMARK    7  A    between atoms: _15  and  _16
REMARK    8  A    between atoms: _15  and  _18
REMARK    9  A    between atoms: _18  and  _19
REMARK   10  A    between atoms: _22  and  _24
REMARK   11  A    between atoms: _24  and  _25
REMARK   12  A    between atoms: _24  and  _27
REMARK   13  A    between atoms: _27  and  _28
REMARK   14  A    between atoms: _33  and  _35
REMARK   15  A    between atoms: _35  and  _36
REMARK   16  A    between atoms: _35  and  _38
REMARK   17  A    between atoms: _38  and  _39
REMARK   18  A    between atoms: _45  and  _46
REMARK   19  A    between atoms: _51  and  _53
REMARK   20  A    between atoms: _53  and  _54
REMARK   21  A    between atoms: _53  and  _56
REMARK   22  A    between atoms: _56  and  _57
REMARK   23  A    between atoms: _60  and  _62
REMARK   24  A    between atoms: _62  and  _63
REMARK   25  A    between atoms: _62  and  _65
REMARK   26  A    between atoms: _65  and  _66
REMARK   27  A    between atoms: _72  and  _74
REMARK   28  A    between atoms: _74  and  _75
REMARK   29  A    between atoms: _74  and  _77
REMARK   30  A    between atoms: _77  and  _78
REMARK   31  A    between atoms: _78  and  _79
REMARK   32  A    between atoms: _79  and  _80
REMARK   33  A    between atoms: _80  and  _81
REMARK   34  A    between atoms: _85  and  _87
REMARK   35  A    between atoms: _87  and  _88
REMARK   36  A    between atoms: _87  and  _90
REMARK   37  A    between atoms: _90  and  _91
REMARK   38  A    between atoms: _96  and  _98
REMARK   39  A    between atoms: _98  and  _99
REMARK   40  A    between atoms: _98  and  _101
REMARK   41  A    between atoms: _101  and  _102
REMARK   42  A    between atoms: _107  and  _109
REMARK   43  A    between atoms: _109  and  _110
REMARK   44  A    between atoms: _109  and  _112
REMARK   45  A    between atoms: _112  and  _113
REMARK   46  A    between atoms: _118  and  _119
REMARK   47  A    between atoms: _121  and  _123
REMARK   48  A    between atoms: _123  and  _124
REMARK   49  A    between atoms: _123  and  _126
REMARK   50  A    between atoms: _126  and  _127
REMARK   51  A    between atoms: _127  and  _128
REMARK   52  A    between atoms: _133  and  _135
REMARK   53  A    between atoms: _135  and  _136
REMARK   54  A    between atoms: _135  and  _138
REMARK   55  A    between atoms: _138  and  _139
REMARK   56  A    between atoms: _139  and  _140
REMARK   57  A    between atoms: _145  and  _147
REMARK   58  A    between atoms: _147  and  _148
REMARK   59  A    between atoms: _147  and  _150
REMARK   60  A    between atoms: _150  and  _151
REMARK   61  A    between atoms: _156  and  _158
REMARK   62  A    between atoms: _158  and  _159
REMARK   63  A    between atoms: _158  and  _161
REMARK   64  A    between atoms: _161  and  _162
REMARK   65  A    between atoms: _162  and  _163
REMARK   66  A    between atoms: _166  and  _168
REMARK   67  A    between atoms: _168  and  _169
REMARK   68  A    between atoms: _168  and  _171
REMARK   69  A    between atoms: _174  and  _176
REMARK   70  A    between atoms: _176  and  _177
REMARK   71  A    between atoms: _176  and  _179
REMARK   72  A    between atoms: _179  and  _180
REMARK   73  A    between atoms: _185  and  _186
REMARK   74  A    between atoms: _188  and  _190
REMARK   75  A    between atoms: _190  and  _191
REMARK   76  A    between atoms: _190  and  _193
REMARK   77  A    between atoms: _193  and  _194
REMARK   78  A    between atoms: _199  and  _201
REMARK   79  A    between atoms: _201  and  _202
REMARK   80  A    between atoms: _201  and  _204
REMARK   81  A    between atoms: _207  and  _209
REMARK   82  A    between atoms: _209  and  _210
REMARK   83  A    between atoms: _213  and  _215
REMARK   84  A    between atoms: _215  and  _216
REMARK   85  A    between atoms: _215  and  _218
REMARK   86  A    between atoms: _218  and  _219
REMARK   87  A    between atoms: _222  and  _224
REMARK   88  A    between atoms: _224  and  _225
REMARK   89  A    between atoms: _224  and  _227
REMARK   90  A    between atoms: _227  and  _228
REMARK   91  A    between atoms: _231  and  _233
REMARK   92  A    between atoms: _233  and  _234
REMARK   93  A    between atoms: _233  and  _236
REMARK   94  A    between atoms: _236  and  _237
REMARK   95  A    between atoms: _240  and  _242
REMARK   96  A    between atoms: _242  and  _243
REMARK   97  A    between atoms: _242  and  _245
REMARK   98  A    between atoms: _245  and  _246
REMARK   99  A    between atoms: _251  and  _252
REMARK  100  A    between atoms: _254  and  _256
REMARK  101  A    between atoms: _256  and  _257
REMARK  102  A    between atoms: _260  and  _262
REMARK  103  A    between atoms: _262  and  _263
REMARK  104  A    between atoms: _262  and  _265
REMARK  105  A    between atoms: _265  and  _266
REMARK  106  A    between atoms: _266  and  _267
REMARK  107  A    between atoms: _270  and  _272
REMARK  108  A    between atoms: _272  and  _273
REMARK  109  A    between atoms: _272  and  _275
REMARK  110  A    between atoms: _275  and  _276
REMARK  111  A    between atoms: _281  and  _283
REMARK  112  A    between atoms: _283  and  _284
REMARK  113  A    between atoms: _283  and  _286
REMARK  114  A    between atoms: _286  and  _287
REMARK  115  A    between atoms: _293  and  _295
REMARK  116  A    between atoms: _295  and  _296
REMARK  117  A    between atoms: _298  and  _300
REMARK  118  A    between atoms: _300  and  _301
REMARK  119  A    between atoms: _300  and  _303
REMARK  120  A    between atoms: _303  and  _304
REMARK  121  A    between atoms: _309  and  _310
REMARK  122  A    between atoms: _312  and  _314
REMARK  123  A    between atoms: _314  and  _315
REMARK  124  A    between atoms: _314  and  _317
REMARK  125  A    between atoms: _317  and  _318
REMARK  126  A    between atoms: _321  and  _323
REMARK  127  A    between atoms: _323  and  _324
REMARK  128  A    between atoms: _323  and  _326
REMARK  129  A    between atoms: _326  and  _327
REMARK  130  A    between atoms: _332  and  _334
REMARK  131  A    between atoms: _334  and  _335
REMARK  132  A    between atoms: _334  and  _337
REMARK  133  A    between atoms: _337  and  _338
REMARK  134  A    between atoms: _343  and  _344
REMARK  135  A    between atoms: _346  and  _348
REMARK  136  A    between atoms: _348  and  _349
REMARK  137  A    between atoms: _348  and  _351
REMARK  138  A    between atoms: _351  and  _352
REMARK  139  A    between atoms: _355  and  _357
REMARK  140  A    between atoms: _357  and  _358
REMARK                            x       y       z     vdW  Elec       q    Type
REMARK                         _______ _______ _______ _____ _____    ______ ____
ROOT
ATOM      1  CG  TYR A   1      55.833  20.414  36.390  0.00  0.00    -0.020 A 
ATOM      2  CD2 TYR A   1      54.844  21.128  37.020  0.00  0.00    -0.001 A 
ATOM      3  CE2 TYR A   1      55.131  22.276  37.723  0.00  0.00    +0.036 A 
ATOM      4  CZ  TYR A   1      56.447  22.714  37.813  0.00  0.00    +0.134 A 
ATOM      5  CE1 TYR A   1      57.461  22.012  37.205  0.00  0.00    +0.036 A 
ATOM      6  CD1 TYR A   1      57.148  20.871  36.495  0.00  0.00    -0.001 A 
ENDROOT
BRANCH   4   7
ATOM      7  OH  TYR A   1      56.749  23.889  38.504  0.00  0.00    -0.506 OA
ATOM      8  HH  TYR A   1      56.273  24.649  38.085  0.00  0.00    +0.292 HD
ENDBRANCH   4   7
BRANCH   1   9
ATOM      9  CB  TYR A   1      55.498  19.193  35.563  0.00  0.00    +0.051 C 
BRANCH   9  10
ATOM     10  CA  TYR A   1      55.619  17.862  36.288  0.00  0.00    +0.137 C 
BRANCH  10  11
ATOM     11  N   TYR A   1      57.010  17.503  36.455  0.00  0.00    -0.239 NA
ATOM     12  H   TYR A   1      57.690  17.715  35.697  0.00  0.00    +0.142 HD
ENDBRANCH  10  11
BRANCH  10  13
ATOM     13  C   TYR A   1      54.789  16.829  35.536  0.00  0.00    +0.224 C 
ATOM     14  O   TYR A   1      53.582  17.026  35.341  0.00  0.00    -0.287 OA
ENDBRANCH  10  13
ENDBRANCH   9  10
ENDBRANCH   1   9
TORSDOF 5
REMARK  Name = ../refined-set-2016/4d1j/4d1j_pocket.pdb
REMARK  140 active torsions:
REMARK  status: ('A' for Active; 'I' for Inactive)
REMARK    1  A    between atoms: _1  and  _3
REMARK    2  A    between atoms: _3  and  _4
REMARK    3  A    between atoms: _3  and  _6
REMARK    4  A    between atoms: _6  and  _7
REMARK    5  A    between atoms: _7  and  _8
REMARK    6  A    between atoms: _13  and  _15
REMARK    7  A    between atoms: _15  and  _16
REMARK    8  A    between atoms: _15  and  _18
REMARK    9  A    between atoms: _18  and  _19
REMARK   10  A    between atoms: _22  and  _24
REMARK   11  A    between atoms: _24  and  _25
REMARK   12  A    between atoms: _24  and  _27
REMARK   13  A    between atoms: _27  and  _28
REMARK   14  A    between atoms: _33  and  _35
REMARK   15  A    between atoms: _35  and  _36
REMARK   16  A    between atoms: _35  and  _38
REMARK   17  A    between atoms: _38  and  _39
REMARK   18  A    between atoms: _45  and  _46
REMARK   19  A    between atoms: _51  and  _53
REMARK   20  A    between atoms: _53  and  _54
REMARK   21  A    between atoms: _53  and  _56
REMARK   22  A    between atoms: _56  and  _57
REMARK   23  A    between atoms: _60  and  _62
REMARK   24  A    between atoms: _62  and  _63
REMARK   25  A    between atoms: _62  and  _65
REMARK   26  A    between atoms: _65  and  _66
REMARK   27  A    between atoms: _72  and  _74
REMARK   28  A    between atoms: _74  and  _75
REMARK   29  A    between atoms: _74  and  _77
REMARK   30  A    between atoms: _77  and  _78
REMARK   31  A    between atoms: _78  and  _79
REMARK   32  A    between atoms: _79  and  _80
REMARK   33  A    between atoms: _80  and  _81
REMARK   34  A    between atoms: _85  and  _87
REMARK   35  A    between atoms: _87  and  _88
REMARK   36  A    between atoms: _87  and  _90
REMARK   37  A    between atoms: _90  and  _91
REMARK   38  A    between atoms: _96  and  _98
REMARK   39  A    between atoms: _98  and  _99
REMARK   40  A    between atoms: _98  and  _101
REMARK   41  A    between atoms: _101  and  _102
REMARK   42  A    between atoms: _107  and  _109
REMARK   43  A    between atoms: _109  and  _110
REMARK   44  A    between atoms: _109  and  _112
REMARK   45  A    between atoms: _112  and  _113
REMARK   46  A    between atoms: _118  and  _119
REMARK   47  A    between atoms: _121  and  _123
REMARK   48  A    between atoms: _123  and  _124
REMARK   49  A    between atoms: _123  and  _126
REMARK   50  A    between atoms: _126  and  _127
REMARK   51  A    between atoms: _127  and  _128
REMARK   52  A    between atoms: _133  and  _135
REMARK   53  A    between atoms: _135  and  _136
REMARK   54  A    between atoms: _135  and  _138
REMARK   55  A    between atoms: _138  and  _139
REMARK   56  A    between atoms: _139  and  _140
REMARK   57  A    between atoms: _145  and  _147
REMARK   58  A    between atoms: _147  and  _148
REMARK   59  A    between atoms: _147  and  _150
REMARK   60  A    between atoms: _150  and  _151
REMARK   61  A    between atoms: _156  and  _158
REMARK   62  A    between atoms: _158  and  _159
REMARK   63  A    between atoms: _158  and  _161
REMARK   64  A    between atoms: _161  and  _162
REMARK   65  A    between atoms: _162  and  _163
REMARK   66  A    between atoms: _166  and  _168
REMARK   67  A    between atoms: _168  and  _169
REMARK   68  A    between atoms: _168  and  _171
REMARK   69  A    between atoms: _174  and  _176
REMARK   70  A    between atoms: _176  and  _177
REMARK   71  A    between atoms: _176  and  _179
REMARK   72  A    between atoms: _179  and  _180
REMARK   73  A    between atoms: _185  and  _186
REMARK   74  A    between atoms: _188  and  _190
REMARK   75  A    between atoms: _190  and  _191
REMARK   76  A    between atoms: _190  and  _193
REMARK   77  A    between atoms: _193  and  _194
REMARK   78  A    between atoms: _199  and  _201
REMARK   79  A    between atoms: _201  and  _202
REMARK   80  A    between atoms: _201  and  _204
REMARK   81  A    between atoms: _207  and  _209
REMARK   82  A    between atoms: _209  and  _210
REMARK   83  A    between atoms: _213  and  _215
REMARK   84  A    between atoms: _215  and  _216
REMARK   85  A    between atoms: _215  and  _218
REMARK   86  A    between atoms: _218  and  _219
REMARK   87  A    between atoms: _222  and  _224
REMARK   88  A    between atoms: _224  and  _225
REMARK   89  A    between atoms: _224  and  _227
REMARK   90  A    between atoms: _227  and  _228
REMARK   91  A    between atoms: _231  and  _233
REMARK   92  A    between atoms: _233  and  _234
REMARK   93  A    between atoms: _233  and  _236
REMARK   94  A    between atoms: _236  and  _237
REMARK   95  A    between atoms: _240  and  _242
REMARK   96  A    between atoms: _242  and  _243
REMARK   97  A    between atoms: _242  and  _245
REMARK   98  A    between atoms: _245  and  _246
REMARK   99  A    between atoms: _251  and  _252
REMARK  100  A    between atoms: _254  and  _256
REMARK  101  A    between atoms: _256  and  _257
REMARK  102  A    between atoms: _260  and  _262
REMARK  103  A    between atoms: _262  and  _263
REMARK  104  A    between atoms: _262  and  _265
REMARK  105  A    between atoms: _265  and  _266
REMARK  106  A    between atoms: _266  and  _267
REMARK  107  A    between atoms: _270  and  _272
REMARK  108  A    between atoms: _272  and  _273
REMARK  109  A    between atoms: _272  and  _275
REMARK  110  A    between atoms: _275  and  _276
REMARK  111  A    between atoms: _281  and  _283
REMARK  112  A    between atoms: _283  and  _284
REMARK  113  A    between atoms: _283  and  _286
REMARK  114  A    between atoms: _286  and  _287
REMARK  115  A    between atoms: _293  and  _295
REMARK  116  A    between atoms: _295  and  _296
REMARK  117  A    between atoms: _298  and  _300
REMARK  118  A    between atoms: _300  and  _301
REMARK  119  A    between atoms: _300  and  _303
REMARK  120  A    between atoms: _303  and  _304
REMARK  121  A    between atoms: _309  and  _310
REMARK  122  A    between atoms: _312  and  _314
REMARK  123  A    between atoms: _314  and  _315
REMARK  124  A    between atoms: _314  and  _317
REMARK  125  A    between atoms: _317  and  _318
REMARK  126  A    between atoms: _321  and  _323
REMARK  127  A    between atoms: _323  and  _324
REMARK  128  A    between atoms: _323  and  _326
REMARK  129  A    between atoms: _326  and  _327
REMARK  130  A    between atoms: _332  and  _334
REMARK  131  A    between atoms: _334  and  _335
REMARK  132  A    between atoms: _334  and  _337
REMARK  133  A    between atoms: _337  and  _338
REMARK  134  A    between atoms: _343  and  _344
REMARK  135  A    between atoms: _346  and  _348
REMARK  136  A    between atoms: _348  and  _349
REMARK  137  A    between atoms: _348  and  _351
REMARK  138  A    between atoms: _351  and  _352
REMARK  139  A    between atoms: _355  and  _357
REMARK  140  A    between atoms: _357  and  _358
REMARK                            x       y       z     vdW  Elec       q    Type
REMARK                         _______ _______ _______ _____ _____    ______ ____
ROOT
ATOM      1  CB  GLN A   1      55.085  27.303  26.016  0.00  0.00    +0.035 C 
ENDROOT
BRANCH   1   2
ATOM      2  CA  GLN A   1      54.310  26.651  24.880  0.00  0.00    +0.134 C 
BRANCH   2   3
ATOM      3  N   GLN A   1      52.931  27.117  24.864  0.00  0.00    -0.239 NA
ATOM      4  H   GLN A   1      52.478  27.383  25.762  0.00  0.00    +0.142 HD
ENDBRANCH   2   3
BRANCH   2   5
ATOM      5  C   GLN A   1      54.294  25.161  25.104  0.00  0.00    +0.224 C 
ATOM      6  O   GLN A   1      53.686  24.672  26.073  0.00  0.00    -0.287 OA
ENDBRANCH   2   5
ENDBRANCH   1   2
BRANCH   1   7
ATOM      7  CG  GLN A   1      56.579  27.028  26.003  0.00  0.00    +0.087 C 
BRANCH   7   8
ATOM      8  CD  GLN A   1      57.264  27.574  27.230  0.00  0.00    +0.219 C 
ATOM      9  NE2 GLN A   1      57.396  26.745  28.243  0.00  0.00    -0.329 N 
ATOM     10 HE21 GLN A   1      57.788  27.084  29.145  0.00  0.00    +0.145 HD
ATOM     11 HE22 GLN A   1      57.108  25.751  28.142  0.00  0.00    +0.145 HD
ATOM     12  OE1 GLN A   1      57.595  28.773  27.305  0.00  0.00    -0.275 OA
ENDBRANCH   7   8
ENDBRANCH   1   7
TORSDOF 5
REMARK  Name = ../refined-set-2016/4d1j/4d1j_pocket.pdb
REMARK  140 active torsions:
REMARK  status: ('A' for Active; 'I' for Inactive)
REMARK    1  A    between atoms: _1  and  _3
REMARK    2  A    between atoms: _3  and  _4
REMARK    3  A    between atoms: _3  and  _6
REMARK    4  A    between atoms: _6  and  _7
REMARK    5  A    between atoms: _7  and  _8
REMARK    6  A    between atoms: _13  and  _15
REMARK    7  A    between atoms: _15  and  _16
REMARK    8  A    between atoms: _15  and  _18
REMARK    9  A    between atoms: _18  and  _19
REMARK   10  A    between atoms: _22  and  _24
REMARK   11  A    between atoms: _24  and  _25
REMARK   12  A    between atoms: _24  and  _27
REMARK   13  A    between atoms: _27  and  _28
REMARK   14  A    between atoms: _33  and  _35
REMARK   15  A    between atoms: _35  and  _36
REMARK   16  A    between atoms: _35  and  _38
REMARK   17  A    between atoms: _38  and  _39
REMARK   18  A    between atoms: _45  and  _46
REMARK   19  A    between atoms: _51  and  _53
REMARK   20  A    between atoms: _53  and  _54
REMARK   21  A    between atoms: _53  and  _56
REMARK   22  A    between atoms: _56  and  _57
REMARK   23  A    between atoms: _60  and  _62
REMARK   24  A    between atoms: _62  and  _63
REMARK   25  A    between atoms: _62  and  _65
REMARK   26  A    between atoms: _65  and  _66
REMARK   27  A    between atoms: _72  and  _74
REMARK   28  A    between atoms: _74  and  _75
REMARK   29  A    between atoms: _74  and  _77
REMARK   30  A    between atoms: _77  and  _78
REMARK   31  A    between atoms: _78  and  _79
REMARK   32  A    between atoms: _79  and  _80
REMARK   33  A    between atoms: _80  and  _81
REMARK   34  A    between atoms: _85  and  _87
REMARK   35  A    between atoms: _87  and  _88
REMARK   36  A    between atoms: _87  and  _90
REMARK   37  A    between atoms: _90  and  _91
REMARK   38  A    between atoms: _96  and  _98
REMARK   39  A    between atoms: _98  and  _99
REMARK   40  A    between atoms: _98  and  _101
REMARK   41  A    between atoms: _101  and  _102
REMARK   42  A    between atoms: _107  and  _109
REMARK   43  A    between atoms: _109  and  _110
REMARK   44  A    between atoms: _109  and  _112
REMARK   45  A    between atoms: _112  and  _113
REMARK   46  A    between atoms: _118  and  _119
REMARK   47  A    between atoms: _121  and  _123
REMARK   48  A    between atoms: _123  and  _124
REMARK   49  A    between atoms: _123  and  _126
REMARK   50  A    between atoms: _126  and  _127
REMARK   51  A    between atoms: _127  and  _128
REMARK   52  A    between atoms: _133  and  _135
REMARK   53  A    between atoms: _135  and  _136
REMARK   54  A    between atoms: _135  and  _138
REMARK   55  A    between atoms: _138  and  _139
REMARK   56  A    between atoms: _139  and  _140
REMARK   57  A    between atoms: _145  and  _147
REMARK   58  A    between atoms: _147  and  _148
REMARK   59  A    between atoms: _147  and  _150
REMARK   60  A    between atoms: _150  and  _151
REMARK   61  A    between atoms: _156  and  _158
REMARK   62  A    between atoms: _158  and  _159
REMARK   63  A    between atoms: _158  and  _161
REMARK   64  A    between atoms: _161  and  _162
REMARK   65  A    between atoms: _162  and  _163
REMARK   66  A    between atoms: _166  and  _168
REMARK   67  A    between atoms: _168  and  _169
REMARK   68  A    between atoms: _168  and  _171
REMARK   69  A    between atoms: _174  and  _176
REMARK   70  A    between atoms: _176  and  _177
REMARK   71  A    between atoms: _176  and  _179
REMARK   72  A    between atoms: _179  and  _180
REMARK   73  A    between atoms: _185  and  _186
REMARK   74  A    between atoms: _188  and  _190
REMARK   75  A    between atoms: _190  and  _191
REMARK   76  A    between atoms: _190  and  _193
REMARK   77  A    between atoms: _193  and  _194
REMARK   78  A    between atoms: _199  and  _201
REMARK   79  A    between atoms: _201  and  _202
REMARK   80  A    between atoms: _201  and  _204
REMARK   81  A    between atoms: _207  and  _209
REMARK   82  A    between atoms: _209  and  _210
REMARK   83  A    between atoms: _213  and  _215
REMARK   84  A    between atoms: _215  and  _216
REMARK   85  A    between atoms: _215  and  _218
REMARK   86  A    between atoms: _218  and  _219
REMARK   87  A    between atoms: _222  and  _224
REMARK   88  A    between atoms: _224  and  _225
REMARK   89  A    between atoms: _224  and  _227
REMARK   90  A    between atoms: _227  and  _228
REMARK   91  A    between atoms: _231  and  _233
REMARK   92  A    between atoms: _233  and  _234
REMARK   93  A    between atoms: _233  and  _236
REMARK   94  A    between atoms: _236  and  _237
REMARK   95  A    between atoms: _240  and  _242
REMARK   96  A    between atoms: _242  and  _243
REMARK   97  A    between atoms: _242  and  _245
REMARK   98  A    between atoms: _245  and  _246
REMARK   99  A    between atoms: _251  and  _252
REMARK  100  A    between atoms: _254  and  _256
REMARK  101  A    between atoms: _256  and  _257
REMARK  102  A    between atoms: _260  and  _262
REMARK  103  A    between atoms: _262  and  _263
REMARK  104  A    between atoms: _262  and  _265
REMARK  105  A    between atoms: _265  and  _266
REMARK  106  A    between atoms: _266  and  _267
REMARK  107  A    between atoms: _270  and  _272
REMARK  108  A    between atoms: _272  and  _273
REMARK  109  A    between atoms: _272  and  _275
REMARK  110  A    between atoms: _275  and  _276
REMARK  111  A    between atoms: _281  and  _283
REMARK  112  A    between atoms: _283  and  _284
REMARK  113  A    between atoms: _283  and  _286
REMARK  114  A    between atoms: _286  and  _287
REMARK  115  A    between atoms: _293  and  _295
REMARK  116  A    between atoms: _295  and  _296
REMARK  117  A    between atoms: _298  and  _300
REMARK  118  A    between atoms: _300  and  _301
REMARK  119  A    between atoms: _300  and  _303
REMARK  120  A    between atoms: _303  and  _304
REMARK  121  A    between atoms: _309  and  _310
REMARK  122  A    between atoms: _312  and  _314
REMARK  123  A    between atoms: _314  and  _315
REMARK  124  A    between atoms: _314  and  _317
REMARK  125  A    between atoms: _317  and  _318
REMARK  126  A    between atoms: _321  and  _323
REMARK  127  A    between atoms: _323  and  _324
REMARK  128  A    between atoms: _323  and  _326
REMARK  129  A    between atoms: _326  and  _327
REMARK  130  A    between atoms: _332  and  _334
REMARK  131  A    between atoms: _334  and  _335
REMARK  132  A    between atoms: _334  and  _337
REMARK  133  A    between atoms: _337  and  _338
REMARK  134  A    between atoms: _343  and  _344
REMARK  135  A    between atoms: _346  and  _348
REMARK  136  A    between atoms: _348  and  _349
REMARK  137  A    between atoms: _348  and  _351
REMARK  138  A    between atoms: _351  and  _352
REMARK  139  A    between atoms: _355  and  _357
REMARK  140  A    between atoms: _357  and  _358
REMARK                            x       y       z     vdW  Elec       q    Type
REMARK                         _______ _______ _______ _____ _____    ______ ____
ROOT
ATOM      1  CA  ASN A   2      59.523  23.841  29.059  0.00  0.00    +0.158 C 
ENDROOT
BRANCH   1   3
ATOM      2  C   GLN A   1      57.770  22.871  27.666  0.00  0.00    +0.238 C 
ATOM      3  N   ASN A   2      58.758  22.703  28.537  0.00  0.00    -0.297 N 
ATOM      4  H   ASN A   2      58.995  21.742  28.857  0.00  0.00    +0.150 HD
ATOM      5  O   GLN A   1      57.322  24.003  27.350  0.00  0.00    -0.274 OA
BRANCH   2   6
ATOM      6  CA  GLN A   1      57.151  21.605  27.102  0.00  0.00    +0.145 C 
BRANCH   6   7
ATOM      7  N   GLN A   1      56.056  21.939  26.174  0.00  0.00    -0.238 NA
ATOM      8  H   GLN A   1      55.085  21.703  26.463  0.00  0.00    +0.142 HD
ENDBRANCH   6   7
BRANCH   6   9
ATOM      9  CB  GLN A   1      58.229  20.740  26.475  0.00  0.00    +0.036 C 
BRANCH   9  10
ATOM     10  CG  GLN A   1      57.740  19.607  25.585  0.00  0.00    +0.087 C 
BRANCH  10  11
ATOM     11  CD  GLN A   1      56.925  18.563  26.308  0.00  0.00    +0.219 C 
ATOM     12  OE1 GLN A   1      57.139  18.277  27.490  0.00  0.00    -0.275 OA
ATOM     13  NE2 GLN A   1      55.952  17.993  25.593  0.00  0.00    -0.329 N 
ATOM     14 HE21 GLN A   1      55.337  17.276  26.029  0.00  0.00    +0.145 HD
ATOM     15 HE22 GLN A   1      55.809  18.266  24.600  0.00  0.00    +0.145 HD
ENDBRANCH  10  11
ENDBRANCH   9  10
ENDBRANCH   6   9
ENDBRANCH   2   6
ENDBRANCH   1   3
BRANCH   1  16
ATOM     16  C   ASN A   2      61.000  23.509  29.189  0.00  0.00    +0.241 C 
ATOM     17  O   ASN A   2      61.369  22.640  29.968  0.00  0.00    -0.273 OA
ATOM     18  N   GLU A   3      61.828  24.194  28.404  0.00  0.00    -0.297 N 
ATOM     19  H   GLU A   3      61.419  24.903  27.763  0.00  0.00    +0.150 HD
BRANCH  18  20
ATOM     20  CA  GLU A   3      63.283  24.009  28.388  0.00  0.00    +0.149 C 
BRANCH  20  21
ATOM     21  C   GLU A   3      63.613  22.502  28.300  0.00  0.00    +0.241 C 
ATOM     22  O   GLU A   3      64.129  21.881  29.230  0.00  0.00    -0.273 OA
ATOM     23  N   VAL A   4      63.304  21.946  27.134  0.00  0.00    -0.298 N 
ATOM     24  H   VAL A   4      62.806  22.514  26.419  0.00  0.00    +0.150 HD
BRANCH  23  25
ATOM     25  CA  VAL A   4      63.643  20.564  26.831  0.00  0.00    +0.137 C 
BRANCH  25  26
ATOM     26  CB  VAL A   4      63.068  20.098  25.489  0.00  0.00    +0.026 C 
ATOM     27  CG2 VAL A   4      61.543  20.320  25.418  0.00  0.00    +0.002 C 
ATOM     28  CG1 VAL A   4      63.738  20.814  24.324  0.00  0.00    +0.002 C 
ENDBRANCH  25  26
BRANCH  25  29
ATOM     29  C   VAL A   4      65.161  20.395  26.808  0.00  0.00    +0.227 C 
ATOM     30  O   VAL A   4      65.937  21.362  26.691  0.00  0.00    -0.286 OA
ENDBRANCH  25  29
ENDBRANCH  23  25
ENDBRANCH  20  21
BRANCH  20  31
ATOM     31  CB  GLU A   3      63.948  24.691  29.569  0.00  0.00    +0.041 C 
BRANCH  31  32
ATOM     32  CG  GLU A   3      63.861  26.212  29.511  0.00  0.00    +0.116 C 
BRANCH  32  33
ATOM     33  CD  GLU A   3      64.855  26.938  30.394  0.00  0.00    +0.365 C 
ATOM     34  OE2 GLU A   3      65.379  26.328  31.340  0.00  0.00    -0.246 OA
ATOM     35  OE1 GLU A   3      65.079  28.170  30.201  0.00  0.00    -0.246 OA
ENDBRANCH  32  33
ENDBRANCH  31  32
ENDBRANCH  20  31
ENDBRANCH  18  20
ENDBRANCH   1  16
BRANCH   1  36
ATOM     36  CB  ASN A   2      58.969  24.265  30.418  0.00  0.00    +0.114 C 
BRANCH  36  37
ATOM     37  CG  ASN A   2      59.577  25.564  30.897  0.00  0.00    +0.222 C 
ATOM     38  ND2 ASN A   2      60.636  25.474  31.685  0.00  0.00    -0.329 N 
ATOM     39 HD21 ASN A   2      61.104  26.337  32.028  0.00  0.00    +0.145 HD
ATOM     40 HD22 ASN A   2      61.001  24.540  31.961  0.00  0.00    +0.145 HD
ATOM     41  OD1 ASN A   2      59.101  26.641  30.537  0.00  0.00    -0.275 OA
ENDBRANCH  36  37
ENDBRANCH   1  36
TORSDOF 17
REMARK  Name = ../refined-set-2016/4d1j/4d1j_pocket.pdb
REMARK  140 active torsions:
REMARK  status: ('A' for Active; 'I' for Inactive)
REMARK    1  A    between atoms: _1  and  _3
REMARK    2  A    between atoms: _3  and  _4
REMARK    3  A    between atoms: _3  and  _6
REMARK    4  A    between atoms: _6  and  _7
REMARK    5  A    between atoms: _7  and  _8
REMARK    6  A    between atoms: _13  and  _15
REMARK    7  A    between atoms: _15  and  _16
REMARK    8  A    between atoms: _15  and  _18
REMARK    9  A    between atoms: _18  and  _19
REMARK   10  A    between atoms: _22  and  _24
REMARK   11  A    between atoms: _24  and  _25
REMARK   12  A    between atoms: _24  and  _27
REMARK   13  A    between atoms: _27  and  _28
REMARK   14  A    between atoms: _33  and  _35
REMARK   15  A    between atoms: _35  and  _36
REMARK   16  A    between atoms: _35  and  _38
REMARK   17  A    between atoms: _38  and  _39
REMARK   18  A    between atoms: _45  and  _46
REMARK   19  A    between atoms: _51  and  _53
REMARK   20  A    between atoms: _53  and  _54
REMARK   21  A    between atoms: _53  and  _56
REMARK   22  A    between atoms: _56  and  _57
REMARK   23  A    between atoms: _60  and  _62
REMARK   24  A    between atoms: _62  and  _63
REMARK   25  A    between atoms: _62  and  _65
REMARK   26  A    between atoms: _65  and  _66
REMARK   27  A    between atoms: _72  and  _74
REMARK   28  A    between atoms: _74  and  _75
REMARK   29  A    between atoms: _74  and  _77
REMARK   30  A    between atoms: _77  and  _78
REMARK   31  A    between atoms: _78  and  _79
REMARK   32  A    between atoms: _79  and  _80
REMARK   33  A    between atoms: _80  and  _81
REMARK   34  A    between atoms: _85  and  _87
REMARK   35  A    between atoms: _87  and  _88
REMARK   36  A    between atoms: _87  and  _90
REMARK   37  A    between atoms: _90  and  _91
REMARK   38  A    between atoms: _96  and  _98
REMARK   39  A    between atoms: _98  and  _99
REMARK   40  A    between atoms: _98  and  _101
REMARK   41  A    between atoms: _101  and  _102
REMARK   42  A    between atoms: _107  and  _109
REMARK   43  A    between atoms: _109  and  _110
REMARK   44  A    between atoms: _109  and  _112
REMARK   45  A    between atoms: _112  and  _113
REMARK   46  A    between atoms: _118  and  _119
REMARK   47  A    between atoms: _121  and  _123
REMARK   48  A    between atoms: _123  and  _124
REMARK   49  A    between atoms: _123  and  _126
REMARK   50  A    between atoms: _126  and  _127
REMARK   51  A    between atoms: _127  and  _128
REMARK   52  A    between atoms: _133  and  _135
REMARK   53  A    between atoms: _135  and  _136
REMARK   54  A    between atoms: _135  and  _138
REMARK   55  A    between atoms: _138  and  _139
REMARK   56  A    between atoms: _139  and  _140
REMARK   57  A    between atoms: _145  and  _147
REMARK   58  A    between atoms: _147  and  _148
REMARK   59  A    between atoms: _147  and  _150
REMARK   60  A    between atoms: _150  and  _151
REMARK   61  A    between atoms: _156  and  _158
REMARK   62  A    between atoms: _158  and  _159
REMARK   63  A    between atoms: _158  and  _161
REMARK   64  A    between atoms: _161  and  _162
REMARK   65  A    between atoms: _162  and  _163
REMARK   66  A    between atoms: _166  and  _168
REMARK   67  A    between atoms: _168  and  _169
REMARK   68  A    between atoms: _168  and  _171
REMARK   69  A    between atoms: _174  and  _176
REMARK   70  A    between atoms: _176  and  _177
REMARK   71  A    between atoms: _176  and  _179
REMARK   72  A    between atoms: _179  and  _180
REMARK   73  A    between atoms: _185  and  _186
REMARK   74  A    between atoms: _188  and  _190
REMARK   75  A    between atoms: _190  and  _191
REMARK   76  A    between atoms: _190  and  _193
REMARK   77  A    between atoms: _193  and  _194
REMARK   78  A    between atoms: _199  and  _201
REMARK   79  A    between atoms: _201  and  _202
REMARK   80  A    between atoms: _201  and  _204
REMARK   81  A    between atoms: _207  and  _209
REMARK   82  A    between atoms: _209  and  _210
REMARK   83  A    between atoms: _213  and  _215
REMARK   84  A    between atoms: _215  and  _216
REMARK   85  A    between atoms: _215  and  _218
REMARK   86  A    between atoms: _218  and  _219
REMARK   87  A    between atoms: _222  and  _224
REMARK   88  A    between atoms: _224  and  _225
REMARK   89  A    between atoms: _224  and  _227
REMARK   90  A    between atoms: _227  and  _228
REMARK   91  A    between atoms: _231  and  _233
REMARK   92  A    between atoms: _233  and  _234
REMARK   93  A    between atoms: _233  and  _236
REMARK   94  A    between atoms: _236  and  _237
REMARK   95  A    between atoms: _240  and  _242
REMARK   96  A    between atoms: _242  and  _243
REMARK   97  A    between atoms: _242  and  _245
REMARK   98  A    between atoms: _245  and  _246
REMARK   99  A    between atoms: _251  and  _252
REMARK  100  A    between atoms: _254  and  _256
REMARK  101  A    between atoms: _256  and  _257
REMARK  102  A    between atoms: _260  and  _262
REMARK  103  A    between atoms: _262  and  _263
REMARK  104  A    between atoms: _262  and  _265
REMARK  105  A    between atoms: _265  and  _266
REMARK  106  A    between atoms: _266  and  _267
REMARK  107  A    between atoms: _270  and  _272
REMARK  108  A    between atoms: _272  and  _273
REMARK  109  A    between atoms: _272  and  _275
REMARK  110  A    between atoms: _275  and  _276
REMARK  111  A    between atoms: _281  and  _283
REMARK  112  A    between atoms: _283  and  _284
REMARK  113  A    between atoms: _283  and  _286
REMARK  114  A    between atoms: _286  and  _287
REMARK  115  A    between atoms: _293  and  _295
REMARK  116  A    between atoms: _295  and  _296
REMARK  117  A    between atoms: _298  and  _300
REMARK  118  A    between atoms: _300  and  _301
REMARK  119  A    between atoms: _300  and  _303
REMARK  120  A    between atoms: _303  and  _304
REMARK  121  A    between atoms: _309  and  _310
REMARK  122  A    between atoms: _312  and  _314
REMARK  123  A    between atoms: _314  and  _315
REMARK  124  A    between atoms: _314  and  _317
REMARK  125  A    between atoms: _317  and  _318
REMARK  126  A    between atoms: _321  and  _323
REMARK  127  A    between atoms: _323  and  _324
REMARK  128  A    between atoms: _323  and  _326
REMARK  129  A    between atoms: _326  and  _327
REMARK  130  A    between atoms: _332  and  _334
REMARK  131  A    between atoms: _334  and  _335
REMARK  132  A    between atoms: _334  and  _337
REMARK  133  A    between atoms: _337  and  _338
REMARK  134  A    between atoms: _343  and  _344
REMARK  135  A    between atoms: _346  and  _348
REMARK  136  A    between atoms: _348  and  _349
REMARK  137  A    between atoms: _348  and  _351
REMARK  138  A    between atoms: _351  and  _352
REMARK  139  A    between atoms: _355  and  _357
REMARK  140  A    between atoms: _357  and  _358
REMARK                            x       y       z     vdW  Elec       q    Type
REMARK                         _______ _______ _______ _____ _____    ______ ____
ROOT
ATOM      1  CG  TYR A   1      71.107  20.223  32.688  0.00  0.00    -0.020 A 
ATOM      2  CD2 TYR A   1      69.779  20.459  33.026  0.00  0.00    -0.001 A 
ATOM      3  CE2 TYR A   1      69.207  21.723  32.854  0.00  0.00    +0.036 A 
ATOM      4  CZ  TYR A   1      69.949  22.741  32.317  0.00  0.00    +0.134 A 
ATOM      5  CE1 TYR A   1      71.297  22.525  31.969  0.00  0.00    +0.036 A 
ATOM      6  CD1 TYR A   1      71.849  21.263  32.147  0.00  0.00    -0.001 A 
ENDROOT
BRANCH   4   7
ATOM      7  OH  TYR A   1      69.382  23.994  32.137  0.00  0.00    -0.506 OA
ATOM      8  HH  TYR A   1      70.053  24.605  31.741  0.00  0.00    +0.292 HD
ENDBRANCH   4   7
BRANCH   1   9
ATOM      9  CB  TYR A   1      71.714  18.861  32.900  0.00  0.00    +0.051 C 
BRANCH   9  10
ATOM     10  CA  TYR A   1      71.964  18.061  31.625  0.00  0.00    +0.137 C 
BRANCH  10  11
ATOM     11  N   TYR A   1      70.715  17.719  30.923  0.00  0.00    -0.239 NA
ATOM     12  H   TYR A   1      69.857  17.545  31.485  0.00  0.00    +0.142 HD
ENDBRANCH  10  11
BRANCH  10  13
ATOM     13  C   TYR A   1      72.672  16.776  32.026  0.00  0.00    +0.224 C 
ATOM     14  O   TYR A   1      72.029  15.823  32.456  0.00  0.00    -0.287 OA
ENDBRANCH  10  13
ENDBRANCH   9  10
ENDBRANCH   1   9
TORSDOF 5
REMARK  Name = ../refined-set-2016/4d1j/4d1j_pocket.pdb
REMARK  140 active torsions:
REMARK  status: ('A' for Active; 'I' for Inactive)
REMARK    1  A    between atoms: _1  and  _3
REMARK    2  A    between atoms: _3  and  _4
REMARK    3  A    between atoms: _3  and  _6
REMARK    4  A    between atoms: _6  and  _7
REMARK    5  A    between atoms: _7  and  _8
REMARK    6  A    between atoms: _13  and  _15
REMARK    7  A    between atoms: _15  and  _16
REMARK    8  A    between atoms: _15  and  _18
REMARK    9  A    between atoms: _18  and  _19
REMARK   10  A    between atoms: _22  and  _24
REMARK   11  A    between atoms: _24  and  _25
REMARK   12  A    between atoms: _24  and  _27
REMARK   13  A    between atoms: _27  and  _28
REMARK   14  A    between atoms: _33  and  _35
REMARK   15  A    between atoms: _35  and  _36
REMARK   16  A    between atoms: _35  and  _38
REMARK   17  A    between atoms: _38  and  _39
REMARK   18  A    between atoms: _45  and  _46
REMARK   19  A    between atoms: _51  and  _53
REMARK   20  A    between atoms: _53  and  _54
REMARK   21  A    between atoms: _53  and  _56
REMARK   22  A    between atoms: _56  and  _57
REMARK   23  A    between atoms: _60  and  _62
REMARK   24  A    between atoms: _62  and  _63
REMARK   25  A    between atoms: _62  and  _65
REMARK   26  A    between atoms: _65  and  _66
REMARK   27  A    between atoms: _72  and  _74
REMARK   28  A    between atoms: _74  and  _75
REMARK   29  A    between atoms: _74  and  _77
REMARK   30  A    between atoms: _77  and  _78
REMARK   31  A    between atoms: _78  and  _79
REMARK   32  A    between atoms: _79  and  _80
REMARK   33  A    between atoms: _80  and  _81
REMARK   34  A    between atoms: _85  and  _87
REMARK   35  A    between atoms: _87  and  _88
REMARK   36  A    between atoms: _87  and  _90
REMARK   37  A    between atoms: _90  and  _91
REMARK   38  A    between atoms: _96  and  _98
REMARK   39  A    between atoms: _98  and  _99
REMARK   40  A    between atoms: _98  and  _101
REMARK   41  A    between atoms: _101  and  _102
REMARK   42  A    between atoms: _107  and  _109
REMARK   43  A    between atoms: _109  and  _110
REMARK   44  A    between atoms: _109  and  _112
REMARK   45  A    between atoms: _112  and  _113
REMARK   46  A    between atoms: _118  and  _119
REMARK   47  A    between atoms: _121  and  _123
REMARK   48  A    between atoms: _123  and  _124
REMARK   49  A    between atoms: _123  and  _126
REMARK   50  A    between atoms: _126  and  _127
REMARK   51  A    between atoms: _127  and  _128
REMARK   52  A    between atoms: _133  and  _135
REMARK   53  A    between atoms: _135  and  _136
REMARK   54  A    between atoms: _135  and  _138
REMARK   55  A    between atoms: _138  and  _139
REMARK   56  A    between atoms: _139  and  _140
REMARK   57  A    between atoms: _145  and  _147
REMARK   58  A    between atoms: _147  and  _148
REMARK   59  A    between atoms: _147  and  _150
REMARK   60  A    between atoms: _150  and  _151
REMARK   61  A    between atoms: _156  and  _158
REMARK   62  A    between atoms: _158  and  _159
REMARK   63  A    between atoms: _158  and  _161
REMARK   64  A    between atoms: _161  and  _162
REMARK   65  A    between atoms: _162  and  _163
REMARK   66  A    between atoms: _166  and  _168
REMARK   67  A    between atoms: _168  and  _169
REMARK   68  A    between atoms: _168  and  _171
REMARK   69  A    between atoms: _174  and  _176
REMARK   70  A    between atoms: _176  and  _177
REMARK   71  A    between atoms: _176  and  _179
REMARK   72  A    between atoms: _179  and  _180
REMARK   73  A    between atoms: _185  and  _186
REMARK   74  A    between atoms: _188  and  _190
REMARK   75  A    between atoms: _190  and  _191
REMARK   76  A    between atoms: _190  and  _193
REMARK   77  A    between atoms: _193  and  _194
REMARK   78  A    between atoms: _199  and  _201
REMARK   79  A    between atoms: _201  and  _202
REMARK   80  A    between atoms: _201  and  _204
REMARK   81  A    between atoms: _207  and  _209
REMARK   82  A    between atoms: _209  and  _210
REMARK   83  A    between atoms: _213  and  _215
REMARK   84  A    between atoms: _215  and  _216
REMARK   85  A    between atoms: _215  and  _218
REMARK   86  A    between atoms: _218  and  _219
REMARK   87  A    between atoms: _222  and  _224
REMARK   88  A    between atoms: _224  and  _225
REMARK   89  A    between atoms: _224  and  _227
REMARK   90  A    between atoms: _227  and  _228
REMARK   91  A    between atoms: _231  and  _233
REMARK   92  A    between atoms: _233  and  _234
REMARK   93  A    between atoms: _233  and  _236
REMARK   94  A    between atoms: _236  and  _237
REMARK   95  A    between atoms: _240  and  _242
REMARK   96  A    between atoms: _242  and  _243
REMARK   97  A    between atoms: _242  and  _245
REMARK   98  A    between atoms: _245  and  _246
REMARK   99  A    between atoms: _251  and  _252
REMARK  100  A    between atoms: _254  and  _256
REMARK  101  A    between atoms: _256  and  _257
REMARK  102  A    between atoms: _260  and  _262
REMARK  103  A    between atoms: _262  and  _263
REMARK  104  A    between atoms: _262  and  _265
REMARK  105  A    between atoms: _265  and  _266
REMARK  106  A    between atoms: _266  and  _267
REMARK  107  A    between atoms: _270  and  _272
REMARK  108  A    between atoms: _272  and  _273
REMARK  109  A    between atoms: _272  and  _275
REMARK  110  A    between atoms: _275  and  _276
REMARK  111  A    between atoms: _281  and  _283
REMARK  112  A    between atoms: _283  and  _284
REMARK  113  A    between atoms: _283  and  _286
REMARK  114  A    between atoms: _286  and  _287
REMARK  115  A    between atoms: _293  and  _295
REMARK  116  A    between atoms: _295  and  _296
REMARK  117  A    between atoms: _298  and  _300
REMARK  118  A    between atoms: _300  and  _301
REMARK  119  A    between atoms: _300  and  _303
REMARK  120  A    between atoms: _303  and  _304
REMARK  121  A    between atoms: _309  and  _310
REMARK  122  A    between atoms: _312  and  _314
REMARK  123  A    between atoms: _314  and  _315
REMARK  124  A    between atoms: _314  and  _317
REMARK  125  A    between atoms: _317  and  _318
REMARK  126  A    between atoms: _321  and  _323
REMARK  127  A    between atoms: _323  and  _324
REMARK  128  A    between atoms: _323  and  _326
REMARK  129  A    between atoms: _326  and  _327
REMARK  130  A    between atoms: _332  and  _334
REMARK  131  A    between atoms: _334  and  _335
REMARK  132  A    between atoms: _334  and  _337
REMARK  133  A    between atoms: _337  and  _338
REMARK  134  A    between atoms: _343  and  _344
REMARK  135  A    between atoms: _346  and  _348
REMARK  136  A    between atoms: _348  and  _349
REMARK  137  A    between atoms: _348  and  _351
REMARK  138  A    between atoms: _351  and  _352
REMARK  139  A    between atoms: _355  and  _357
REMARK  140  A    between atoms: _357  and  _358
REMARK                            x       y       z     vdW  Elec       q    Type
REMARK                         _______ _______ _______ _____ _____    ______ ____
ROOT
ATOM      1  CA  VAL A   2      65.253  27.516  25.186  0.00  0.00    +0.148 C 
ENDROOT
BRANCH   1   4
ATOM      2  C   ASN A   1      62.835  27.307  25.272  0.00  0.00    +0.239 C 
ATOM      3  O   ASN A   1      62.885  26.160  25.741  0.00  0.00    -0.274 OA
ATOM      4  N   VAL A   2      63.896  28.072  25.154  0.00  0.00    -0.297 N 
ATOM      5  H   VAL A   2      63.771  29.098  25.035  0.00  0.00    +0.150 HD
BRANCH   2   6
ATOM      6  CA  ASN A   1      61.490  27.964  24.903  0.00  0.00    +0.154 C 
BRANCH   6   7
ATOM      7  N   ASN A   1      60.592  27.015  24.282  0.00  0.00    -0.238 NA
ATOM      8  H   ASN A   1      60.223  26.223  24.845  0.00  0.00    +0.142 HD
ENDBRANCH   6   7
BRANCH   6   9
ATOM      9  CB  ASN A   1      60.858  28.570  26.158  0.00  0.00    +0.111 C 
BRANCH   9  10
ATOM     10  CG  ASN A   1      60.589  27.549  27.245  0.00  0.00    +0.221 C 
ATOM     11  ND2 ASN A   1      60.723  27.992  28.499  0.00  0.00    -0.329 N 
ATOM     12 HD21 ASN A   1      60.505  27.364  29.299  0.00  0.00    +0.145 HD
ATOM     13 HD22 ASN A   1      61.046  28.965  28.675  0.00  0.00    +0.145 HD
ATOM     14  OD1 ASN A   1      60.212  26.410  26.983  0.00  0.00    -0.275 OA
ENDBRANCH   9  10
ENDBRANCH   6   9
ENDBRANCH   2   6
ENDBRANCH   1   4
BRANCH   1  15
ATOM     15  C   VAL A   2      66.024  27.870  26.435  0.00  0.00    +0.241 C 
ATOM     16  N   ALA A   3      66.543  26.840  27.100  0.00  0.00    -0.297 N 
ATOM     17  H   ALA A   3      66.192  25.879  26.911  0.00  0.00    +0.150 HD
ATOM     18  O   VAL A   2      66.204  29.056  26.762  0.00  0.00    -0.273 OA
BRANCH  16  19
ATOM     19  CA  ALA A   3      67.610  27.041  28.103  0.00  0.00    +0.149 C 
ATOM     20  CB  ALA A   3      67.790  25.817  28.985  0.00  0.00    +0.031 C 
BRANCH  19  21
ATOM     21  C   ALA A   3      68.886  27.343  27.315  0.00  0.00    +0.241 C 
ATOM     22  N   LEU A   4      69.256  28.610  27.281  0.00  0.00    -0.298 N 
ATOM     23  H   LEU A   4      68.788  29.296  27.907  0.00  0.00    +0.150 HD
ATOM     24  O   ALA A   3      69.516  26.447  26.746  0.00  0.00    -0.273 OA
BRANCH  22  25
ATOM     25  CA  LEU A   4      70.322  29.069  26.369  0.00  0.00    +0.137 C 
BRANCH  25  26
ATOM     26  C   LEU A   4      71.694  28.598  26.775  0.00  0.00    +0.227 C 
ATOM     27  O   LEU A   4      72.006  28.527  27.965  0.00  0.00    -0.286 OA
ENDBRANCH  25  26
BRANCH  25  28
ATOM     28  CB  LEU A   4      70.365  30.611  26.336  0.00  0.00    +0.028 C 
BRANCH  28  29
ATOM     29  CG  LEU A   4      69.094  31.279  25.836  0.00  0.00    +0.002 C 
ATOM     30  CD2 LEU A   4      69.250  32.768  26.063  0.00  0.00    +0.000 C 
ATOM     31  CD1 LEU A   4      68.830  30.951  24.382  0.00  0.00    +0.000 C 
ENDBRANCH  28  29
ENDBRANCH  25  28
ENDBRANCH  22  25
ENDBRANCH  19  21
ENDBRANCH  16  19
ENDBRANCH   1  15
BRANCH   1  32
ATOM     32  CB  VAL A   2      66.051  27.982  23.976  0.00  0.00    +0.027 C 
ATOM     33  CG2 VAL A   2      67.441  27.323  23.952  0.00  0.00    +0.002 C 
ATOM     34  CG1 VAL A   2      65.309  27.667  22.696  0.00  0.00    +0.002 C 
ENDBRANCH   1  32
TORSDOF 13
REMARK  Name = ../refined-set-2016/4d1j/4d1j_pocket.pdb
REMARK  140 active torsions:
REMARK  status: ('A' for Active; 'I' for Inactive)
REMARK    1  A    between atoms: _1  and  _3
REMARK    2  A    between atoms: _3  and  _4
REMARK    3  A    between atoms: _3  and  _6
REMARK    4  A    between atoms: _6  and  _7
REMARK    5  A    between atoms: _7  and  _8
REMARK    6  A    between atoms: _13  and  _15
REMARK    7  A    between atoms: _15  and  _16
REMARK    8  A    between atoms: _15  and  _18
REMARK    9  A    between atoms: _18  and  _19
REMARK   10  A    between atoms: _22  and  _24
REMARK   11  A    between atoms: _24  and  _25
REMARK   12  A    between atoms: _24  and  _27
REMARK   13  A    between atoms: _27  and  _28
REMARK   14  A    between atoms: _33  and  _35
REMARK   15  A    between atoms: _35  and  _36
REMARK   16  A    between atoms: _35  and  _38
REMARK   17  A    between atoms: _38  and  _39
REMARK   18  A    between atoms: _45  and  _46
REMARK   19  A    between atoms: _51  and  _53
REMARK   20  A    between atoms: _53  and  _54
REMARK   21  A    between atoms: _53  and  _56
REMARK   22  A    between atoms: _56  and  _57
REMARK   23  A    between atoms: _60  and  _62
REMARK   24  A    between atoms: _62  and  _63
REMARK   25  A    between atoms: _62  and  _65
REMARK   26  A    between atoms: _65  and  _66
REMARK   27  A    between atoms: _72  and  _74
REMARK   28  A    between atoms: _74  and  _75
REMARK   29  A    between atoms: _74  and  _77
REMARK   30  A    between atoms: _77  and  _78
REMARK   31  A    between atoms: _78  and  _79
REMARK   32  A    between atoms: _79  and  _80
REMARK   33  A    between atoms: _80  and  _81
REMARK   34  A    between atoms: _85  and  _87
REMARK   35  A    between atoms: _87  and  _88
REMARK   36  A    between atoms: _87  and  _90
REMARK   37  A    between atoms: _90  and  _91
REMARK   38  A    between atoms: _96  and  _98
REMARK   39  A    between atoms: _98  and  _99
REMARK   40  A    between atoms: _98  and  _101
REMARK   41  A    between atoms: _101  and  _102
REMARK   42  A    between atoms: _107  and  _109
REMARK   43  A    between atoms: _109  and  _110
REMARK   44  A    between atoms: _109  and  _112
REMARK   45  A    between atoms: _112  and  _113
REMARK   46  A    between atoms: _118  and  _119
REMARK   47  A    between atoms: _121  and  _123
REMARK   48  A    between atoms: _123  and  _124
REMARK   49  A    between atoms: _123  and  _126
REMARK   50  A    between atoms: _126  and  _127
REMARK   51  A    between atoms: _127  and  _128
REMARK   52  A    between atoms: _133  and  _135
REMARK   53  A    between atoms: _135  and  _136
REMARK   54  A    between atoms: _135  and  _138
REMARK   55  A    between atoms: _138  and  _139
REMARK   56  A    between atoms: _139  and  _140
REMARK   57  A    between atoms: _145  and  _147
REMARK   58  A    between atoms: _147  and  _148
REMARK   59  A    between atoms: _147  and  _150
REMARK   60  A    between atoms: _150  and  _151
REMARK   61  A    between atoms: _156  and  _158
REMARK   62  A    between atoms: _158  and  _159
REMARK   63  A    between atoms: _158  and  _161
REMARK   64  A    between atoms: _161  and  _162
REMARK   65  A    between atoms: _162  and  _163
REMARK   66  A    between atoms: _166  and  _168
REMARK   67  A    between atoms: _168  and  _169
REMARK   68  A    between atoms: _168  and  _171
REMARK   69  A    between atoms: _174  and  _176
REMARK   70  A    between atoms: _176  and  _177
REMARK   71  A    between atoms: _176  and  _179
REMARK   72  A    between atoms: _179  and  _180
REMARK   73  A    between atoms: _185  and  _186
REMARK   74  A    between atoms: _188  and  _190
REMARK   75  A    between atoms: _190  and  _191
REMARK   76  A    between atoms: _190  and  _193
REMARK   77  A    between atoms: _193  and  _194
REMARK   78  A    between atoms: _199  and  _201
REMARK   79  A    between atoms: _201  and  _202
REMARK   80  A    between atoms: _201  and  _204
REMARK   81  A    between atoms: _207  and  _209
REMARK   82  A    between atoms: _209  and  _210
REMARK   83  A    between atoms: _213  and  _215
REMARK   84  A    between atoms: _215  and  _216
REMARK   85  A    between atoms: _215  and  _218
REMARK   86  A    between atoms: _218  and  _219
REMARK   87  A    between atoms: _222  and  _224
REMARK   88  A    between atoms: _224  and  _225
REMARK   89  A    between atoms: _224  and  _227
REMARK   90  A    between atoms: _227  and  _228
REMARK   91  A    between atoms: _231  and  _233
REMARK   92  A    between atoms: _233  and  _234
REMARK   93  A    between atoms: _233  and  _236
REMARK   94  A    between atoms: _236  and  _237
REMARK   95  A    between atoms: _240  and  _242
REMARK   96  A    between atoms: _242  and  _243
REMARK   97  A    between atoms: _242  and  _245
REMARK   98  A    between atoms: _245  and  _246
REMARK   99  A    between atoms: _251  and  _252
REMARK  100  A    between atoms: _254  and  _256
REMARK  101  A    between atoms: _256  and  _257
REMARK  102  A    between atoms: _260  and  _262
REMARK  103  A    between atoms: _262  and  _263
REMARK  104  A    between atoms: _262  and  _265
REMARK  105  A    between atoms: _265  and  _266
REMARK  106  A    between atoms: _266  and  _267
REMARK  107  A    between atoms: _270  and  _272
REMARK  108  A    between atoms: _272  and  _273
REMARK  109  A    between atoms: _272  and  _275
REMARK  110  A    between atoms: _275  and  _276
REMARK  111  A    between atoms: _281  and  _283
REMARK  112  A    between atoms: _283  and  _284
REMARK  113  A    between atoms: _283  and  _286
REMARK  114  A    between atoms: _286  and  _287
REMARK  115  A    between atoms: _293  and  _295
REMARK  116  A    between atoms: _295  and  _296
REMARK  117  A    between atoms: _298  and  _300
REMARK  118  A    between atoms: _300  and  _301
REMARK  119  A    between atoms: _300  and  _303
REMARK  120  A    between atoms: _303  and  _304
REMARK  121  A    between atoms: _309  and  _310
REMARK  122  A    between atoms: _312  and  _314
REMARK  123  A    between atoms: _314  and  _315
REMARK  124  A    between atoms: _314  and  _317
REMARK  125  A    between atoms: _317  and  _318
REMARK  126  A    between atoms: _321  and  _323
REMARK  127  A    between atoms: _323  and  _324
REMARK  128  A    between atoms: _323  and  _326
REMARK  129  A    between atoms: _326  and  _327
REMARK  130  A    between atoms: _332  and  _334
REMARK  131  A    between atoms: _334  and  _335
REMARK  132  A    between atoms: _334  and  _337
REMARK  133  A    between atoms: _337  and  _338
REMARK  134  A    between atoms: _343  and  _344
REMARK  135  A    between atoms: _346  and  _348
REMARK  136  A    between atoms: _348  and  _349
REMARK  137  A    between atoms: _348  and  _351
REMARK  138  A    between atoms: _351  and  _352
REMARK  139  A    between atoms: _355  and  _357
REMARK  140  A    between atoms: _357  and  _358
REMARK                            x       y       z     vdW  Elec       q    Type
REMARK                         _______ _______ _______ _____ _____    ______ ____
ROOT
ATOM      1  CA  ILE A   2      67.184  35.303  28.761  0.00  0.00    +0.148 C 
ENDROOT
BRANCH   1   3
ATOM      2  C   ASP A   1      66.123  33.176  28.328  0.00  0.00    +0.239 C 
ATOM      3  N   ILE A   2      65.998  34.477  28.595  0.00  0.00    -0.297 N 
ATOM      4  H   ILE A   2      65.053  34.901  28.685  0.00  0.00    +0.150 HD
ATOM      5  O   ASP A   1      67.196  32.583  28.448  0.00  0.00    -0.274 OA
BRANCH   2   6
ATOM      6  CA  ASP A   1      64.897  32.450  27.852  0.00  0.00    +0.156 C 
BRANCH   6   7
ATOM      7  N   ASP A   1      65.096  32.103  26.450  0.00  0.00    -0.238 NA
ATOM      8  H   ASP A   1      65.698  31.285  26.227  0.00  0.00    +0.142 HD
ENDBRANCH   6   7
BRANCH   6   9
ATOM      9  CB  ASP A   1      64.680  31.182  28.702  0.00  0.00    +0.140 C 
BRANCH   9  10
ATOM     10  CG  ASP A   1      63.382  30.443  28.348  0.00  0.00    +0.367 C 
ATOM     11  OD2 ASP A   1      63.263  29.253  28.726  0.00  0.00    -0.246 OA
ATOM     12  OD1 ASP A   1      62.472  31.051  27.746  0.00  0.00    -0.246 OA
ENDBRANCH   9  10
ENDBRANCH   6   9
ENDBRANCH   2   6
ENDBRANCH   1   3
BRANCH   1  13
ATOM     13  C   ILE A   2      67.472  35.664  30.203  0.00  0.00    +0.241 C 
ATOM     14  O   ILE A   2      66.726  36.441  30.816  0.00  0.00    -0.273 OA
ATOM     15  N   TYR A   3      68.570  35.131  30.747  0.00  0.00    -0.298 N 
ATOM     16  H   TYR A   3      69.143  34.470  30.184  0.00  0.00    +0.150 HD
BRANCH  15  17
ATOM     17  CA  TYR A   3      68.988  35.449  32.107  0.00  0.00    +0.141 C 
BRANCH  17  18
ATOM     18  C   TYR A   3      70.425  35.978  32.187  0.00  0.00    +0.227 C 
ATOM     19  O   TYR A   3      70.902  36.234  33.263  0.00  0.00    -0.286 OA
ENDBRANCH  17  18
BRANCH  17  20
ATOM     20  CB  TYR A   3      68.783  34.239  33.008  0.00  0.00    +0.054 C 
BRANCH  20  21
ATOM     21  CG  TYR A   3      67.325  33.865  33.181  0.00  0.00    -0.020 A 
ATOM     22  CD2 TYR A   3      66.531  34.471  34.158  0.00  0.00    -0.001 A 
ATOM     23  CE2 TYR A   3      65.210  34.139  34.302  0.00  0.00    +0.036 A 
ATOM     24  CZ  TYR A   3      64.641  33.177  33.485  0.00  0.00    +0.134 A 
ATOM     25  CE1 TYR A   3      65.403  32.556  32.513  0.00  0.00    +0.036 A 
ATOM     26  CD1 TYR A   3      66.731  32.931  32.348  0.00  0.00    -0.001 A 
BRANCH  24  27
ATOM     27  OH  TYR A   3      63.341  32.847  33.599  0.00  0.00    -0.506 OA
ATOM     28  HH  TYR A   3      62.875  33.048  32.749  0.00  0.00    +0.292 HD
ENDBRANCH  24  27
ENDBRANCH  20  21
ENDBRANCH  17  20
ENDBRANCH  15  17
ENDBRANCH   1  13
BRANCH   1  29
ATOM     29  CB  ILE A   2      67.058  36.605  27.934  0.00  0.00    +0.027 C 
ATOM     30  CG2 ILE A   2      68.274  37.495  28.126  0.00  0.00    +0.002 C 
BRANCH  29  31
ATOM     31  CG1 ILE A   2      66.892  36.243  26.462  0.00  0.00    +0.002 C 
ATOM     32  CD1 ILE A   2      66.764  37.443  25.539  0.00  0.00    +0.000 C 
ENDBRANCH  29  31
ENDBRANCH   1  29
TORSDOF 13
REMARK  Name = ../refined-set-2016/4d1j/4d1j_pocket.pdb
REMARK  140 active torsions:
REMARK  status: ('A' for Active; 'I' for Inactive)
REMARK    1  A    between atoms: _1  and  _3
REMARK    2  A    between atoms: _3  and  _4
REMARK    3  A    between atoms: _3  and  _6
REMARK    4  A    between atoms: _6  and  _7
REMARK    5  A    between atoms: _7  and  _8
REMARK    6  A    between atoms: _13  and  _15
REMARK    7  A    between atoms: _15  and  _16
REMARK    8  A    between atoms: _15  and  _18
REMARK    9  A    between atoms: _18  and  _19
REMARK   10  A    between atoms: _22  and  _24
REMARK   11  A    between atoms: _24  and  _25
REMARK   12  A    between atoms: _24  and  _27
REMARK   13  A    between atoms: _27  and  _28
REMARK   14  A    between atoms: _33  and  _35
REMARK   15  A    between atoms: _35  and  _36
REMARK   16  A    between atoms: _35  and  _38
REMARK   17  A    between atoms: _38  and  _39
REMARK   18  A    between atoms: _45  and  _46
REMARK   19  A    between atoms: _51  and  _53
REMARK   20  A    between atoms: _53  and  _54
REMARK   21  A    between atoms: _53  and  _56
REMARK   22  A    between atoms: _56  and  _57
REMARK   23  A    between atoms: _60  and  _62
REMARK   24  A    between atoms: _62  and  _63
REMARK   25  A    between atoms: _62  and  _65
REMARK   26  A    between atoms: _65  and  _66
REMARK   27  A    between atoms: _72  and  _74
REMARK   28  A    between atoms: _74  and  _75
REMARK   29  A    between atoms: _74  and  _77
REMARK   30  A    between atoms: _77  and  _78
REMARK   31  A    between atoms: _78  and  _79
REMARK   32  A    between atoms: _79  and  _80
REMARK   33  A    between atoms: _80  and  _81
REMARK   34  A    between atoms: _85  and  _87
REMARK   35  A    between atoms: _87  and  _88
REMARK   36  A    between atoms: _87  and  _90
REMARK   37  A    between atoms: _90  and  _91
REMARK   38  A    between atoms: _96  and  _98
REMARK   39  A    between atoms: _98  and  _99
REMARK   40  A    between atoms: _98  and  _101
REMARK   41  A    between atoms: _101  and  _102
REMARK   42  A    between atoms: _107  and  _109
REMARK   43  A    between atoms: _109  and  _110
REMARK   44  A    between atoms: _109  and  _112
REMARK   45  A    between atoms: _112  and  _113
REMARK   46  A    between atoms: _118  and  _119
REMARK   47  A    between atoms: _121  and  _123
REMARK   48  A    between atoms: _123  and  _124
REMARK   49  A    between atoms: _123  and  _126
REMARK   50  A    between atoms: _126  and  _127
REMARK   51  A    between atoms: _127  and  _128
REMARK   52  A    between atoms: _133  and  _135
REMARK   53  A    between atoms: _135  and  _136
REMARK   54  A    between atoms: _135  and  _138
REMARK   55  A    between atoms: _138  and  _139
REMARK   56  A    between atoms: _139  and  _140
REMARK   57  A    between atoms: _145  and  _147
REMARK   58  A    between atoms: _147  and  _148
REMARK   59  A    between atoms: _147  and  _150
REMARK   60  A    between atoms: _150  and  _151
REMARK   61  A    between atoms: _156  and  _158
REMARK   62  A    between atoms: _158  and  _159
REMARK   63  A    between atoms: _158  and  _161
REMARK   64  A    between atoms: _161  and  _162
REMARK   65  A    between atoms: _162  and  _163
REMARK   66  A    between atoms: _166  and  _168
REMARK   67  A    between atoms: _168  and  _169
REMARK   68  A    between atoms: _168  and  _171
REMARK   69  A    between atoms: _174  and  _176
REMARK   70  A    between atoms: _176  and  _177
REMARK   71  A    between atoms: _176  and  _179
REMARK   72  A    between atoms: _179  and  _180
REMARK   73  A    between atoms: _185  and  _186
REMARK   74  A    between atoms: _188  and  _190
REMARK   75  A    between atoms: _190  and  _191
REMARK   76  A    between atoms: _190  and  _193
REMARK   77  A    between atoms: _193  and  _194
REMARK   78  A    between atoms: _199  and  _201
REMARK   79  A    between atoms: _201  and  _202
REMARK   80  A    between atoms: _201  and  _204
REMARK   81  A    between atoms: _207  and  _209
REMARK   82  A    between atoms: _209  and  _210
REMARK   83  A    between atoms: _213  and  _215
REMARK   84  A    between atoms: _215  and  _216
REMARK   85  A    between atoms: _215  and  _218
REMARK   86  A    between atoms: _218  and  _219
REMARK   87  A    between atoms: _222  and  _224
REMARK   88  A    between atoms: _224  and  _225
REMARK   89  A    between atoms: _224  and  _227
REMARK   90  A    between atoms: _227  and  _228
REMARK   91  A    between atoms: _231  and  _233
REMARK   92  A    between atoms: _233  and  _234
REMARK   93  A    between atoms: _233  and  _236
REMARK   94  A    between atoms: _236  and  _237
REMARK   95  A    between atoms: _240  and  _242
REMARK   96  A    between atoms: _242  and  _243
REMARK   97  A    between atoms: _242  and  _245
REMARK   98  A    between atoms: _245  and  _246
REMARK   99  A    between atoms: _251  and  _252
REMARK  100  A    between atoms: _254  and  _256
REMARK  101  A    between atoms: _256  and  _257
REMARK  102  A    between atoms: _260  and  _262
REMARK  103  A    between atoms: _262  and  _263
REMARK  104  A    between atoms: _262  and  _265
REMARK  105  A    between atoms: _265  and  _266
REMARK  106  A    between atoms: _266  and  _267
REMARK  107  A    between atoms: _270  and  _272
REMARK  108  A    between atoms: _272  and  _273
REMARK  109  A    between atoms: _272  and  _275
REMARK  110  A    between atoms: _275  and  _276
REMARK  111  A    between atoms: _281  and  _283
REMARK  112  A    between atoms: _283  and  _284
REMARK  113  A    between atoms: _283  and  _286
REMARK  114  A    between atoms: _286  and  _287
REMARK  115  A    between atoms: _293  and  _295
REMARK  116  A    between atoms: _295  and  _296
REMARK  117  A    between atoms: _298  and  _300
REMARK  118  A    between atoms: _300  and  _301
REMARK  119  A    between atoms: _300  and  _303
REMARK  120  A    between atoms: _303  and  _304
REMARK  121  A    between atoms: _309  and  _310
REMARK  122  A    between atoms: _312  and  _314
REMARK  123  A    between atoms: _314  and  _315
REMARK  124  A    between atoms: _314  and  _317
REMARK  125  A    between atoms: _317  and  _318
REMARK  126  A    between atoms: _321  and  _323
REMARK  127  A    between atoms: _323  and  _324
REMARK  128  A    between atoms: _323  and  _326
REMARK  129  A    between atoms: _326  and  _327
REMARK  130  A    between atoms: _332  and  _334
REMARK  131  A    between atoms: _334  and  _335
REMARK  132  A    between atoms: _334  and  _337
REMARK  133  A    between atoms: _337  and  _338
REMARK  134  A    between atoms: _343  and  _344
REMARK  135  A    between atoms: _346  and  _348
REMARK  136  A    between atoms: _348  and  _349
REMARK  137  A    between atoms: _348  and  _351
REMARK  138  A    between atoms: _351  and  _352
REMARK  139  A    between atoms: _355  and  _357
REMARK  140  A    between atoms: _357  and  _358
REMARK                            x       y       z     vdW  Elec       q    Type
REMARK                         _______ _______ _______ _____ _____    ______ ____
ROOT
ATOM      1  C   ALA A   1      59.694  34.124  27.891  0.00  0.00    +0.238 C 
ATOM      2  O   ALA A   1      58.727  33.966  28.638  0.00  0.00    -0.274 OA
ATOM      3  N   GLU A   2      60.955  34.289  28.298  0.00  0.00    -0.298 N 
ATOM      4  H   GLU A   2      61.718  34.216  27.595  0.00  0.00    +0.150 HD
ENDROOT
BRANCH   1   5
ATOM      5  CA  ALA A   1      59.487  34.056  26.412  0.00  0.00    +0.145 C 
ATOM      6  CB  ALA A   1      59.498  32.587  25.982  0.00  0.00    +0.028 C 
BRANCH   5   7
ATOM      7  N   ALA A   1      60.486  34.798  25.699  0.00  0.00    -0.238 NA
ATOM      8  H   ALA A   1      61.216  34.276  25.173  0.00  0.00    +0.142 HD
ENDBRANCH   5   7
ENDBRANCH   1   5
BRANCH   3   9
ATOM      9  CA  GLU A   2      61.308  34.567  29.687  0.00  0.00    +0.137 C 
BRANCH   9  10
ATOM     10  C   GLU A   2      62.473  35.534  29.699  0.00  0.00    +0.227 C 
ATOM     11  O   GLU A   2      63.345  35.455  28.852  0.00  0.00    -0.286 OA
ENDBRANCH   9  10
BRANCH   9  12
ATOM     12  CB  GLU A   2      61.788  33.307  30.392  0.00  0.00    +0.039 C 
BRANCH  12  13
ATOM     13  CG  GLU A   2      60.777  32.222  30.524  0.00  0.00    +0.116 C 
BRANCH  13  14
ATOM     14  CD  GLU A   2      61.369  30.973  31.152  0.00  0.00    +0.365 C 
ATOM     15  OE2 GLU A   2      62.352  31.106  31.953  0.00  0.00    -0.246 OA
ATOM     16  OE1 GLU A   2      60.850  29.869  30.853  0.00  0.00    -0.246 OA
ENDBRANCH  13  14
ENDBRANCH  12  13
ENDBRANCH   9  12
ENDBRANCH   3   9
TORSDOF 7
REMARK  Name = ../refined-set-2016/4d1j/4d1j_pocket.pdb
REMARK  140 active torsions:
REMARK  status: ('A' for Active; 'I' for Inactive)
REMARK    1  A    between atoms: _1  and  _3
REMARK    2  A    between atoms: _3  and  _4
REMARK    3  A    between atoms: _3  and  _6
REMARK    4  A    between atoms: _6  and  _7
REMARK    5  A    between atoms: _7  and  _8
REMARK    6  A    between atoms: _13  and  _15
REMARK    7  A    between atoms: _15  and  _16
REMARK    8  A    between atoms: _15  and  _18
REMARK    9  A    between atoms: _18  and  _19
REMARK   10  A    between atoms: _22  and  _24
REMARK   11  A    between atoms: _24  and  _25
REMARK   12  A    between atoms: _24  and  _27
REMARK   13  A    between atoms: _27  and  _28
REMARK   14  A    between atoms: _33  and  _35
REMARK   15  A    between atoms: _35  and  _36
REMARK   16  A    between atoms: _35  and  _38
REMARK   17  A    between atoms: _38  and  _39
REMARK   18  A    between atoms: _45  and  _46
REMARK   19  A    between atoms: _51  and  _53
REMARK   20  A    between atoms: _53  and  _54
REMARK   21  A    between atoms: _53  and  _56
REMARK   22  A    between atoms: _56  and  _57
REMARK   23  A    between atoms: _60  and  _62
REMARK   24  A    between atoms: _62  and  _63
REMARK   25  A    between atoms: _62  and  _65
REMARK   26  A    between atoms: _65  and  _66
REMARK   27  A    between atoms: _72  and  _74
REMARK   28  A    between atoms: _74  and  _75
REMARK   29  A    between atoms: _74  and  _77
REMARK   30  A    between atoms: _77  and  _78
REMARK   31  A    between atoms: _78  and  _79
REMARK   32  A    between atoms: _79  and  _80
REMARK   33  A    between atoms: _80  and  _81
REMARK   34  A    between atoms: _85  and  _87
REMARK   35  A    between atoms: _87  and  _88
REMARK   36  A    between atoms: _87  and  _90
REMARK   37  A    between atoms: _90  and  _91
REMARK   38  A    between atoms: _96  and  _98
REMARK   39  A    between atoms: _98  and  _99
REMARK   40  A    between atoms: _98  and  _101
REMARK   41  A    between atoms: _101  and  _102
REMARK   42  A    between atoms: _107  and  _109
REMARK   43  A    between atoms: _109  and  _110
REMARK   44  A    between atoms: _109  and  _112
REMARK   45  A    between atoms: _112  and  _113
REMARK   46  A    between atoms: _118  and  _119
REMARK   47  A    between atoms: _121  and  _123
REMARK   48  A    between atoms: _123  and  _124
REMARK   49  A    between atoms: _123  and  _126
REMARK   50  A    between atoms: _126  and  _127
REMARK   51  A    between atoms: _127  and  _128
REMARK   52  A    between atoms: _133  and  _135
REMARK   53  A    between atoms: _135  and  _136
REMARK   54  A    between atoms: _135  and  _138
REMARK   55  A    between atoms: _138  and  _139
REMARK   56  A    between atoms: _139  and  _140
REMARK   57  A    between atoms: _145  and  _147
REMARK   58  A    between atoms: _147  and  _148
REMARK   59  A    between atoms: _147  and  _150
REMARK   60  A    between atoms: _150  and  _151
REMARK   61  A    between atoms: _156  and  _158
REMARK   62  A    between atoms: _158  and  _159
REMARK   63  A    between atoms: _158  and  _161
REMARK   64  A    between atoms: _161  and  _162
REMARK   65  A    between atoms: _162  and  _163
REMARK   66  A    between atoms: _166  and  _168
REMARK   67  A    between atoms: _168  and  _169
REMARK   68  A    between atoms: _168  and  _171
REMARK   69  A    between atoms: _174  and  _176
REMARK   70  A    between atoms: _176  and  _177
REMARK   71  A    between atoms: _176  and  _179
REMARK   72  A    between atoms: _179  and  _180
REMARK   73  A    between atoms: _185  and  _186
REMARK   74  A    between atoms: _188  and  _190
REMARK   75  A    between atoms: _190  and  _191
REMARK   76  A    between atoms: _190  and  _193
REMARK   77  A    between atoms: _193  and  _194
REMARK   78  A    between atoms: _199  and  _201
REMARK   79  A    between atoms: _201  and  _202
REMARK   80  A    between atoms: _201  and  _204
REMARK   81  A    between atoms: _207  and  _209
REMARK   82  A    between atoms: _209  and  _210
REMARK   83  A    between atoms: _213  and  _215
REMARK   84  A    between atoms: _215  and  _216
REMARK   85  A    between atoms: _215  and  _218
REMARK   86  A    between atoms: _218  and  _219
REMARK   87  A    between atoms: _222  and  _224
REMARK   88  A    between atoms: _224  and  _225
REMARK   89  A    between atoms: _224  and  _227
REMARK   90  A    between atoms: _227  and  _228
REMARK   91  A    between atoms: _231  and  _233
REMARK   92  A    between atoms: _233  and  _234
REMARK   93  A    between atoms: _233  and  _236
REMARK   94  A    between atoms: _236  and  _237
REMARK   95  A    between atoms: _240  and  _242
REMARK   96  A    between atoms: _242  and  _243
REMARK   97  A    between atoms: _242  and  _245
REMARK   98  A    between atoms: _245  and  _246
REMARK   99  A    between atoms: _251  and  _252
REMARK  100  A    between atoms: _254  and  _256
REMARK  101  A    between atoms: _256  and  _257
REMARK  102  A    between atoms: _260  and  _262
REMARK  103  A    between atoms: _262  and  _263
REMARK  104  A    between atoms: _262  and  _265
REMARK  105  A    between atoms: _265  and  _266
REMARK  106  A    between atoms: _266  and  _267
REMARK  107  A    between atoms: _270  and  _272
REMARK  108  A    between atoms: _272  and  _273
REMARK  109  A    between atoms: _272  and  _275
REMARK  110  A    between atoms: _275  and  _276
REMARK  111  A    between atoms: _281  and  _283
REMARK  112  A    between atoms: _283  and  _284
REMARK  113  A    between atoms: _283  and  _286
REMARK  114  A    between atoms: _286  and  _287
REMARK  115  A    between atoms: _293  and  _295
REMARK  116  A    between atoms: _295  and  _296
REMARK  117  A    between atoms: _298  and  _300
REMARK  118  A    between atoms: _300  and  _301
REMARK  119  A    between atoms: _300  and  _303
REMARK  120  A    between atoms: _303  and  _304
REMARK  121  A    between atoms: _309  and  _310
REMARK  122  A    between atoms: _312  and  _314
REMARK  123  A    between atoms: _314  and  _315
REMARK  124  A    between atoms: _314  and  _317
REMARK  125  A    between atoms: _317  and  _318
REMARK  126  A    between atoms: _321  and  _323
REMARK  127  A    between atoms: _323  and  _324
REMARK  128  A    between atoms: _323  and  _326
REMARK  129  A    between atoms: _326  and  _327
REMARK  130  A    between atoms: _332  and  _334
REMARK  131  A    between atoms: _334  and  _335
REMARK  132  A    between atoms: _334  and  _337
REMARK  133  A    between atoms: _337  and  _338
REMARK  134  A    between atoms: _343  and  _344
REMARK  135  A    between atoms: _346  and  _348
REMARK  136  A    between atoms: _348  and  _349
REMARK  137  A    between atoms: _348  and  _351
REMARK  138  A    between atoms: _351  and  _352
REMARK  139  A    between atoms: _355  and  _357
REMARK  140  A    between atoms: _357  and  _358
REMARK                            x       y       z     vdW  Elec       q    Type
REMARK                         _______ _______ _______ _____ _____    ______ ____
ROOT
ATOM      1  CB  ASN A   1      61.747  39.744  37.364  0.00  0.00    +0.110 C 
ENDROOT
BRANCH   1   2
ATOM      2  CG  ASN A   1      62.034  39.123  38.719  0.00  0.00    +0.221 C 
ATOM      3  ND2 ASN A   1      60.961  38.783  39.433  0.00  0.00    -0.329 N 
ATOM      4 HD21 ASN A   1      61.076  38.382  40.385  0.00  0.00    +0.145 HD
ATOM      5 HD22 ASN A   1      60.009  38.919  39.038  0.00  0.00    +0.145 HD
ATOM      6  OD1 ASN A   1      63.177  38.979  39.148  0.00  0.00    -0.275 OA
ENDBRANCH   1   2
BRANCH   1   7
ATOM      7  CA  ASN A   1      63.011  40.250  36.635  0.00  0.00    +0.142 C 
BRANCH   7   8
ATOM      8  N   ASN A   1      63.824  39.158  36.134  0.00  0.00    -0.239 NA
ATOM      9  H   ASN A   1      64.085  38.381  36.774  0.00  0.00    +0.142 HD
ENDBRANCH   7   8
BRANCH   7  10
ATOM     10  C   ASN A   1      63.746  41.294  37.458  0.00  0.00    +0.225 C 
ATOM     11  O   ASN A   1      63.115  42.166  38.059  0.00  0.00    -0.287 OA
ENDBRANCH   7  10
ENDBRANCH   1   7
TORSDOF 4
REMARK  Name = ../refined-set-2016/4d1j/4d1j_pocket.pdb
REMARK  140 active torsions:
REMARK  status: ('A' for Active; 'I' for Inactive)
REMARK    1  A    between atoms: _1  and  _3
REMARK    2  A    between atoms: _3  and  _4
REMARK    3  A    between atoms: _3  and  _6
REMARK    4  A    between atoms: _6  and  _7
REMARK    5  A    between atoms: _7  and  _8
REMARK    6  A    between atoms: _13  and  _15
REMARK    7  A    between atoms: _15  and  _16
REMARK    8  A    between atoms: _15  and  _18
REMARK    9  A    between atoms: _18  and  _19
REMARK   10  A    between atoms: _22  and  _24
REMARK   11  A    between atoms: _24  and  _25
REMARK   12  A    between atoms: _24  and  _27
REMARK   13  A    between atoms: _27  and  _28
REMARK   14  A    between atoms: _33  and  _35
REMARK   15  A    between atoms: _35  and  _36
REMARK   16  A    between atoms: _35  and  _38
REMARK   17  A    between atoms: _38  and  _39
REMARK   18  A    between atoms: _45  and  _46
REMARK   19  A    between atoms: _51  and  _53
REMARK   20  A    between atoms: _53  and  _54
REMARK   21  A    between atoms: _53  and  _56
REMARK   22  A    between atoms: _56  and  _57
REMARK   23  A    between atoms: _60  and  _62
REMARK   24  A    between atoms: _62  and  _63
REMARK   25  A    between atoms: _62  and  _65
REMARK   26  A    between atoms: _65  and  _66
REMARK   27  A    between atoms: _72  and  _74
REMARK   28  A    between atoms: _74  and  _75
REMARK   29  A    between atoms: _74  and  _77
REMARK   30  A    between atoms: _77  and  _78
REMARK   31  A    between atoms: _78  and  _79
REMARK   32  A    between atoms: _79  and  _80
REMARK   33  A    between atoms: _80  and  _81
REMARK   34  A    between atoms: _85  and  _87
REMARK   35  A    between atoms: _87  and  _88
REMARK   36  A    between atoms: _87  and  _90
REMARK   37  A    between atoms: _90  and  _91
REMARK   38  A    between atoms: _96  and  _98
REMARK   39  A    between atoms: _98  and  _99
REMARK   40  A    between atoms: _98  and  _101
REMARK   41  A    between atoms: _101  and  _102
REMARK   42  A    between atoms: _107  and  _109
REMARK   43  A    between atoms: _109  and  _110
REMARK   44  A    between atoms: _109  and  _112
REMARK   45  A    between atoms: _112  and  _113
REMARK   46  A    between atoms: _118  and  _119
REMARK   47  A    between atoms: _121  and  _123
REMARK   48  A    between atoms: _123  and  _124
REMARK   49  A    between atoms: _123  and  _126
REMARK   50  A    between atoms: _126  and  _127
REMARK   51  A    between atoms: _127  and  _128
REMARK   52  A    between atoms: _133  and  _135
REMARK   53  A    between atoms: _135  and  _136
REMARK   54  A    between atoms: _135  and  _138
REMARK   55  A    between atoms: _138  and  _139
REMARK   56  A    between atoms: _139  and  _140
REMARK   57  A    between atoms: _145  and  _147
REMARK   58  A    between atoms: _147  and  _148
REMARK   59  A    between atoms: _147  and  _150
REMARK   60  A    between atoms: _150  and  _151
REMARK   61  A    between atoms: _156  and  _158
REMARK   62  A    between atoms: _158  and  _159
REMARK   63  A    between atoms: _158  and  _161
REMARK   64  A    between atoms: _161  and  _162
REMARK   65  A    between atoms: _162  and  _163
REMARK   66  A    between atoms: _166  and  _168
REMARK   67  A    between atoms: _168  and  _169
REMARK   68  A    between atoms: _168  and  _171
REMARK   69  A    between atoms: _174  and  _176
REMARK   70  A    between atoms: _176  and  _177
REMARK   71  A    between atoms: _176  and  _179
REMARK   72  A    between atoms: _179  and  _180
REMARK   73  A    between atoms: _185  and  _186
REMARK   74  A    between atoms: _188  and  _190
REMARK   75  A    between atoms: _190  and  _191
REMARK   76  A    between atoms: _190  and  _193
REMARK   77  A    between atoms: _193  and  _194
REMARK   78  A    between atoms: _199  and  _201
REMARK   79  A    between atoms: _201  and  _202
REMARK   80  A    between atoms: _201  and  _204
REMARK   81  A    between atoms: _207  and  _209
REMARK   82  A    between atoms: _209  and  _210
REMARK   83  A    between atoms: _213  and  _215
REMARK   84  A    between atoms: _215  and  _216
REMARK   85  A    between atoms: _215  and  _218
REMARK   86  A    between atoms: _218  and  _219
REMARK   87  A    between atoms: _222  and  _224
REMARK   88  A    between atoms: _224  and  _225
REMARK   89  A    between atoms: _224  and  _227
REMARK   90  A    between atoms: _227  and  _228
REMARK   91  A    between atoms: _231  and  _233
REMARK   92  A    between atoms: _233  and  _234
REMARK   93  A    between atoms: _233  and  _236
REMARK   94  A    between atoms: _236  and  _237
REMARK   95  A    between atoms: _240  and  _242
REMARK   96  A    between atoms: _242  and  _243
REMARK   97  A    between atoms: _242  and  _245
REMARK   98  A    between atoms: _245  and  _246
REMARK   99  A    between atoms: _251  and  _252
REMARK  100  A    between atoms: _254  and  _256
REMARK  101  A    between atoms: _256  and  _257
REMARK  102  A    between atoms: _260  and  _262
REMARK  103  A    between atoms: _262  and  _263
REMARK  104  A    between atoms: _262  and  _265
REMARK  105  A    between atoms: _265  and  _266
REMARK  106  A    between atoms: _266  and  _267
REMARK  107  A    between atoms: _270  and  _272
REMARK  108  A    between atoms: _272  and  _273
REMARK  109  A    between atoms: _272  and  _275
REMARK  110  A    between atoms: _275  and  _276
REMARK  111  A    between atoms: _281  and  _283
REMARK  112  A    between atoms: _283  and  _284
REMARK  113  A    between atoms: _283  and  _286
REMARK  114  A    between atoms: _286  and  _287
REMARK  115  A    between atoms: _293  and  _295
REMARK  116  A    between atoms: _295  and  _296
REMARK  117  A    between atoms: _298  and  _300
REMARK  118  A    between atoms: _300  and  _301
REMARK  119  A    between atoms: _300  and  _303
REMARK  120  A    between atoms: _303  and  _304
REMARK  121  A    between atoms: _309  and  _310
REMARK  122  A    between atoms: _312  and  _314
REMARK  123  A    between atoms: _314  and  _315
REMARK  124  A    between atoms: _314  and  _317
REMARK  125  A    between atoms: _317  and  _318
REMARK  126  A    between atoms: _321  and  _323
REMARK  127  A    between atoms: _323  and  _324
REMARK  128  A    between atoms: _323  and  _326
REMARK  129  A    between atoms: _326  and  _327
REMARK  130  A    between atoms: _332  and  _334
REMARK  131  A    between atoms: _334  and  _335
REMARK  132  A    between atoms: _334  and  _337
REMARK  133  A    between atoms: _337  and  _338
REMARK  134  A    between atoms: _343  and  _344
REMARK  135  A    between atoms: _346  and  _348
REMARK  136  A    between atoms: _348  and  _349
REMARK  137  A    between atoms: _348  and  _351
REMARK  138  A    between atoms: _351  and  _352
REMARK  139  A    between atoms: _355  and  _357
REMARK  140  A    between atoms: _357  and  _358
REMARK                            x       y       z     vdW  Elec       q    Type
REMARK                         _______ _______ _______ _____ _____    ______ ____
ROOT
ATOM      1  CA  PHE A   1      59.772  35.734  34.873  0.00  0.00    +0.149 C 
ENDROOT
BRANCH   1   2
ATOM      2  C   PHE A   1      59.687  36.005  36.378  0.00  0.00    +0.239 C 
ATOM      3  N   GLY A   2      58.683  35.415  37.010  0.00  0.00    -0.297 N 
ATOM      4  H   GLY A   2      57.958  34.925  36.448  0.00  0.00    +0.150 HD
ATOM      5  O   PHE A   1      60.539  36.718  36.938  0.00  0.00    -0.274 OA
BRANCH   3   6
ATOM      6  CA  GLY A   2      58.554  35.426  38.460  0.00  0.00    +0.163 C 
BRANCH   6   7
ATOM      7  C   GLY A   2      57.820  36.643  38.962  0.00  0.00    +0.229 C 
ATOM      8  O   GLY A   2      58.077  37.101  40.087  0.00  0.00    -0.286 OA
ENDBRANCH   6   7
ENDBRANCH   3   6
ENDBRANCH   1   2
BRANCH   1   9
ATOM      9  N   PHE A   1      60.072  36.925  34.131  0.00  0.00    -0.238 NA
ATOM     10  H   PHE A   1      61.070  37.191  34.011  0.00  0.00    +0.142 HD
ENDBRANCH   1   9
BRANCH   1  11
ATOM     11  CB  PHE A   1      60.839  34.672  34.636  0.00  0.00    +0.053 C 
BRANCH  11  12
ATOM     12  CG  PHE A   1      60.570  33.409  35.380  0.00  0.00    -0.020 A 
ATOM     13  CD2 PHE A   1      60.987  33.268  36.693  0.00  0.00    -0.004 A 
ATOM     14  CE2 PHE A   1      60.710  32.111  37.397  0.00  0.00    -0.000 A 
ATOM     15  CZ  PHE A   1      59.987  31.104  36.822  0.00  0.00    -0.000 A 
ATOM     16  CE1 PHE A   1      59.538  31.240  35.506  0.00  0.00    -0.000 A 
ATOM     17  CD1 PHE A   1      59.834  32.399  34.810  0.00  0.00    -0.004 A 
ENDBRANCH  11  12
ENDBRANCH   1  11
TORSDOF 6
REMARK  Name = ../refined-set-2016/4d1j/4d1j_pocket.pdb
REMARK  140 active torsions:
REMARK  status: ('A' for Active; 'I' for Inactive)
REMARK    1  A    between atoms: _1  and  _3
REMARK    2  A    between atoms: _3  and  _4
REMARK    3  A    between atoms: _3  and  _6
REMARK    4  A    between atoms: _6  and  _7
REMARK    5  A    between atoms: _7  and  _8
REMARK    6  A    between atoms: _13  and  _15
REMARK    7  A    between atoms: _15  and  _16
REMARK    8  A    between atoms: _15  and  _18
REMARK    9  A    between atoms: _18  and  _19
REMARK   10  A    between atoms: _22  and  _24
REMARK   11  A    between atoms: _24  and  _25
REMARK   12  A    between atoms: _24  and  _27
REMARK   13  A    between atoms: _27  and  _28
REMARK   14  A    between atoms: _33  and  _35
REMARK   15  A    between atoms: _35  and  _36
REMARK   16  A    between atoms: _35  and  _38
REMARK   17  A    between atoms: _38  and  _39
REMARK   18  A    between atoms: _45  and  _46
REMARK   19  A    between atoms: _51  and  _53
REMARK   20  A    between atoms: _53  and  _54
REMARK   21  A    between atoms: _53  and  _56
REMARK   22  A    between atoms: _56  and  _57
REMARK   23  A    between atoms: _60  and  _62
REMARK   24  A    between atoms: _62  and  _63
REMARK   25  A    between atoms: _62  and  _65
REMARK   26  A    between atoms: _65  and  _66
REMARK   27  A    between atoms: _72  and  _74
REMARK   28  A    between atoms: _74  and  _75
REMARK   29  A    between atoms: _74  and  _77
REMARK   30  A    between atoms: _77  and  _78
REMARK   31  A    between atoms: _78  and  _79
REMARK   32  A    between atoms: _79  and  _80
REMARK   33  A    between atoms: _80  and  _81
REMARK   34  A    between atoms: _85  and  _87
REMARK   35  A    between atoms: _87  and  _88
REMARK   36  A    between atoms: _87  and  _90
REMARK   37  A    between atoms: _90  and  _91
REMARK   38  A    between atoms: _96  and  _98
REMARK   39  A    between atoms: _98  and  _99
REMARK   40  A    between atoms: _98  and  _101
REMARK   41  A    between atoms: _101  and  _102
REMARK   42  A    between atoms: _107  and  _109
REMARK   43  A    between atoms: _109  and  _110
REMARK   44  A    between atoms: _109  and  _112
REMARK   45  A    between atoms: _112  and  _113
REMARK   46  A    between atoms: _118  and  _119
REMARK   47  A    between atoms: _121  and  _123
REMARK   48  A    between atoms: _123  and  _124
REMARK   49  A    between atoms: _123  and  _126
REMARK   50  A    between atoms: _126  and  _127
REMARK   51  A    between atoms: _127  and  _128
REMARK   52  A    between atoms: _133  and  _135
REMARK   53  A    between atoms: _135  and  _136
REMARK   54  A    between atoms: _135  and  _138
REMARK   55  A    between atoms: _138  and  _139
REMARK   56  A    between atoms: _139  and  _140
REMARK   57  A    between atoms: _145  and  _147
REMARK   58  A    between atoms: _147  and  _148
REMARK   59  A    between atoms: _147  and  _150
REMARK   60  A    between atoms: _150  and  _151
REMARK   61  A    between atoms: _156  and  _158
REMARK   62  A    between atoms: _158  and  _159
REMARK   63  A    between atoms: _158  and  _161
REMARK   64  A    between atoms: _161  and  _162
REMARK   65  A    between atoms: _162  and  _163
REMARK   66  A    between atoms: _166  and  _168
REMARK   67  A    between atoms: _168  and  _169
REMARK   68  A    between atoms: _168  and  _171
REMARK   69  A    between atoms: _174  and  _176
REMARK   70  A    between atoms: _176  and  _177
REMARK   71  A    between atoms: _176  and  _179
REMARK   72  A    between atoms: _179  and  _180
REMARK   73  A    between atoms: _185  and  _186
REMARK   74  A    between atoms: _188  and  _190
REMARK   75  A    between atoms: _190  and  _191
REMARK   76  A    between atoms: _190  and  _193
REMARK   77  A    between atoms: _193  and  _194
REMARK   78  A    between atoms: _199  and  _201
REMARK   79  A    between atoms: _201  and  _202
REMARK   80  A    between atoms: _201  and  _204
REMARK   81  A    between atoms: _207  and  _209
REMARK   82  A    between atoms: _209  and  _210
REMARK   83  A    between atoms: _213  and  _215
REMARK   84  A    between atoms: _215  and  _216
REMARK   85  A    between atoms: _215  and  _218
REMARK   86  A    between atoms: _218  and  _219
REMARK   87  A    between atoms: _222  and  _224
REMARK   88  A    between atoms: _224  and  _225
REMARK   89  A    between atoms: _224  and  _227
REMARK   90  A    between atoms: _227  and  _228
REMARK   91  A    between atoms: _231  and  _233
REMARK   92  A    between atoms: _233  and  _234
REMARK   93  A    between atoms: _233  and  _236
REMARK   94  A    between atoms: _236  and  _237
REMARK   95  A    between atoms: _240  and  _242
REMARK   96  A    between atoms: _242  and  _243
REMARK   97  A    between atoms: _242  and  _245
REMARK   98  A    between atoms: _245  and  _246
REMARK   99  A    between atoms: _251  and  _252
REMARK  100  A    between atoms: _254  and  _256
REMARK  101  A    between atoms: _256  and  _257
REMARK  102  A    between atoms: _260  and  _262
REMARK  103  A    between atoms: _262  and  _263
REMARK  104  A    between atoms: _262  and  _265
REMARK  105  A    between atoms: _265  and  _266
REMARK  106  A    between atoms: _266  and  _267
REMARK  107  A    between atoms: _270  and  _272
REMARK  108  A    between atoms: _272  and  _273
REMARK  109  A    between atoms: _272  and  _275
REMARK  110  A    between atoms: _275  and  _276
REMARK  111  A    between atoms: _281  and  _283
REMARK  112  A    between atoms: _283  and  _284
REMARK  113  A    between atoms: _283  and  _286
REMARK  114  A    between atoms: _286  and  _287
REMARK  115  A    between atoms: _293  and  _295
REMARK  116  A    between atoms: _295  and  _296
REMARK  117  A    between atoms: _298  and  _300
REMARK  118  A    between atoms: _300  and  _301
REMARK  119  A    between atoms: _300  and  _303
REMARK  120  A    between atoms: _303  and  _304
REMARK  121  A    between atoms: _309  and  _310
REMARK  122  A    between atoms: _312  and  _314
REMARK  123  A    between atoms: _314  and  _315
REMARK  124  A    between atoms: _314  and  _317
REMARK  125  A    between atoms: _317  and  _318
REMARK  126  A    between atoms: _321  and  _323
REMARK  127  A    between atoms: _323  and  _324
REMARK  128  A    between atoms: _323  and  _326
REMARK  129  A    between atoms: _326  and  _327
REMARK  130  A    between atoms: _332  and  _334
REMARK  131  A    between atoms: _334  and  _335
REMARK  132  A    between atoms: _334  and  _337
REMARK  133  A    between atoms: _337  and  _338
REMARK  134  A    between atoms: _343  and  _344
REMARK  135  A    between atoms: _346  and  _348
REMARK  136  A    between atoms: _348  and  _349
REMARK  137  A    between atoms: _348  and  _351
REMARK  138  A    between atoms: _351  and  _352
REMARK  139  A    between atoms: _355  and  _357
REMARK  140  A    between atoms: _357  and  _358
REMARK                            x       y       z     vdW  Elec       q    Type
REMARK                         _______ _______ _______ _____ _____    ______ ____
ROOT
ATOM      1  C   THR A   2      63.811  33.976  43.648  0.00  0.00    +0.243 C 
ATOM      2  O   THR A   2      64.360  33.167  44.360  0.00  0.00    -0.273 OA
ATOM      3  N   ASN A   3      64.054  34.055  42.341  0.00  0.00    -0.297 N 
ATOM      4  H   ASN A   3      63.506  34.716  41.754  0.00  0.00    +0.150 HD
ENDROOT
BRANCH   3   5
ATOM      5  CA  ASN A   3      65.098  33.209  41.715  0.00  0.00    +0.158 C 
BRANCH   5   6
ATOM      6  C   ASN A   3      66.453  33.924  41.667  0.00  0.00    +0.241 C 
ATOM      7  N   TYR A   4      66.603  34.991  42.456  0.00  0.00    -0.298 N 
ATOM      8  H   TYR A   4      65.761  35.431  42.879  0.00  0.00    +0.150 HD
ATOM      9  O   ASN A   3      67.350  33.514  40.934  0.00  0.00    -0.273 OA
BRANCH   7  10
ATOM     10  CA  TYR A   4      67.921  35.555  42.739  0.00  0.00    +0.141 C 
BRANCH  10  11
ATOM     11  C   TYR A   4      68.881  34.397  43.028  0.00  0.00    +0.227 C 
ATOM     12  O   TYR A   4      68.540  33.499  43.806  0.00  0.00    -0.286 OA
ENDBRANCH  10  11
BRANCH  10  13
ATOM     13  CB  TYR A   4      67.874  36.494  43.939  0.00  0.00    +0.054 C 
BRANCH  13  14
ATOM     14  CG  TYR A   4      69.211  37.073  44.253  0.00  0.00    -0.020 A 
ATOM     15  CD2 TYR A   4      70.051  36.458  45.203  0.00  0.00    -0.001 A 
ATOM     16  CE2 TYR A   4      71.301  36.971  45.486  0.00  0.00    +0.036 A 
ATOM     17  CZ  TYR A   4      71.726  38.099  44.815  0.00  0.00    +0.134 A 
ATOM     18  CE1 TYR A   4      70.915  38.716  43.861  0.00  0.00    +0.036 A 
ATOM     19  CD1 TYR A   4      69.672  38.201  43.588  0.00  0.00    -0.001 A 
BRANCH  17  20
ATOM     20  OH  TYR A   4      72.966  38.627  45.098  0.00  0.00    -0.506 OA
ATOM     21  HH  TYR A   4      73.118  39.428  44.536  0.00  0.00    +0.292 HD
ENDBRANCH  17  20
ENDBRANCH  13  14
ENDBRANCH  10  13
ENDBRANCH   7  10
ENDBRANCH   5   6
BRANCH   5  22
ATOM     22  CB  ASN A   3      64.673  32.708  40.335  0.00  0.00    +0.114 C 
BRANCH  22  23
ATOM     23  CG  ASN A   3      64.515  33.814  39.317  0.00  0.00    +0.222 C 
ATOM     24  OD1 ASN A   3      64.674  34.989  39.620  0.00  0.00    -0.275 OA
ATOM     25  ND2 ASN A   3      64.169  33.435  38.119  0.00  0.00    -0.329 N 
ATOM     26 HD21 ASN A   3      64.046  32.424  37.909  0.00  0.00    +0.145 HD
ATOM     27 HD22 ASN A   3      64.016  34.144  37.373  0.00  0.00    +0.145 HD
ENDBRANCH  22  23
ENDBRANCH   5  22
ENDBRANCH   3   5
BRANCH   1  28
ATOM     28  CA  THR A   2      62.734  34.920  44.206  0.00  0.00    +0.176 C 
BRANCH  28  30
ATOM     29  C   TYR A   1      60.555  34.259  45.085  0.00  0.00    +0.239 C 
ATOM     30  N   THR A   2      61.875  34.154  45.125  0.00  0.00    -0.295 N 
ATOM     31  H   THR A   2      62.314  33.517  45.820  0.00  0.00    +0.150 HD
ATOM     32  O   TYR A   1      59.945  35.124  44.432  0.00  0.00    -0.274 OA
BRANCH  29  33
ATOM     33  CA  TYR A   1      59.811  33.261  45.912  0.00  0.00    +0.149 C 
BRANCH  33  34
ATOM     34  N   TYR A   1      58.702  33.911  46.543  0.00  0.00    -0.238 NA
ATOM     35  H   TYR A   1      58.266  34.744  46.099  0.00  0.00    +0.142 HD
ENDBRANCH  33  34
BRANCH  33  36
ATOM     36  CB  TYR A   1      59.373  32.098  45.018  0.00  0.00    +0.053 C 
BRANCH  36  37
ATOM     37  CG  TYR A   1      60.556  31.298  44.550  0.00  0.00    -0.020 A 
ATOM     38  CD2 TYR A   1      61.086  30.281  45.349  0.00  0.00    -0.001 A 
ATOM     39  CE2 TYR A   1      62.179  29.540  44.945  0.00  0.00    +0.036 A 
ATOM     40  CZ  TYR A   1      62.760  29.805  43.720  0.00  0.00    +0.134 A 
ATOM     41  CE1 TYR A   1      62.269  30.804  42.912  0.00  0.00    +0.036 A 
ATOM     42  CD1 TYR A   1      61.167  31.538  43.304  0.00  0.00    -0.001 A 
BRANCH  40  43
ATOM     43  OH  TYR A   1      63.861  29.061  43.329  0.00  0.00    -0.506 OA
ATOM     44  HH  TYR A   1      64.072  28.393  44.028  0.00  0.00    +0.292 HD
ENDBRANCH  40  43
ENDBRANCH  36  37
ENDBRANCH  33  36
ENDBRANCH  29  33
ENDBRANCH  28  30
BRANCH  28  45
ATOM     45  CB  THR A   2      63.346  36.257  44.705  0.00  0.00    +0.137 C 
ATOM     46  CG2 THR A   2      64.217  36.121  45.926  0.00  0.00    +0.034 C 
BRANCH  45  47
ATOM     47  OG1 THR A   2      64.149  36.716  43.607  0.00  0.00    -0.382 OA
ATOM     48  HG1 THR A   2      63.574  36.846  42.811  0.00  0.00    +0.210 HD
ENDBRANCH  45  47
ENDBRANCH  28  45
ENDBRANCH   1  28
TORSDOF 18
REMARK  Name = ../refined-set-2016/4d1j/4d1j_pocket.pdb
REMARK  140 active torsions:
REMARK  status: ('A' for Active; 'I' for Inactive)
REMARK    1  A    between atoms: _1  and  _3
REMARK    2  A    between atoms: _3  and  _4
REMARK    3  A    between atoms: _3  and  _6
REMARK    4  A    between atoms: _6  and  _7
REMARK    5  A    between atoms: _7  and  _8
REMARK    6  A    between atoms: _13  and  _15
REMARK    7  A    between atoms: _15  and  _16
REMARK    8  A    between atoms: _15  and  _18
REMARK    9  A    between atoms: _18  and  _19
REMARK   10  A    between atoms: _22  and  _24
REMARK   11  A    between atoms: _24  and  _25
REMARK   12  A    between atoms: _24  and  _27
REMARK   13  A    between atoms: _27  and  _28
REMARK   14  A    between atoms: _33  and  _35
REMARK   15  A    between atoms: _35  and  _36
REMARK   16  A    between atoms: _35  and  _38
REMARK   17  A    between atoms: _38  and  _39
REMARK   18  A    between atoms: _45  and  _46
REMARK   19  A    between atoms: _51  and  _53
REMARK   20  A    between atoms: _53  and  _54
REMARK   21  A    between atoms: _53  and  _56
REMARK   22  A    between atoms: _56  and  _57
REMARK   23  A    between atoms: _60  and  _62
REMARK   24  A    between atoms: _62  and  _63
REMARK   25  A    between atoms: _62  and  _65
REMARK   26  A    between atoms: _65  and  _66
REMARK   27  A    between atoms: _72  and  _74
REMARK   28  A    between atoms: _74  and  _75
REMARK   29  A    between atoms: _74  and  _77
REMARK   30  A    between atoms: _77  and  _78
REMARK   31  A    between atoms: _78  and  _79
REMARK   32  A    between atoms: _79  and  _80
REMARK   33  A    between atoms: _80  and  _81
REMARK   34  A    between atoms: _85  and  _87
REMARK   35  A    between atoms: _87  and  _88
REMARK   36  A    between atoms: _87  and  _90
REMARK   37  A    between atoms: _90  and  _91
REMARK   38  A    between atoms: _96  and  _98
REMARK   39  A    between atoms: _98  and  _99
REMARK   40  A    between atoms: _98  and  _101
REMARK   41  A    between atoms: _101  and  _102
REMARK   42  A    between atoms: _107  and  _109
REMARK   43  A    between atoms: _109  and  _110
REMARK   44  A    between atoms: _109  and  _112
REMARK   45  A    between atoms: _112  and  _113
REMARK   46  A    between atoms: _118  and  _119
REMARK   47  A    between atoms: _121  and  _123
REMARK   48  A    between atoms: _123  and  _124
REMARK   49  A    between atoms: _123  and  _126
REMARK   50  A    between atoms: _126  and  _127
REMARK   51  A    between atoms: _127  and  _128
REMARK   52  A    between atoms: _133  and  _135
REMARK   53  A    between atoms: _135  and  _136
REMARK   54  A    between atoms: _135  and  _138
REMARK   55  A    between atoms: _138  and  _139
REMARK   56  A    between atoms: _139  and  _140
REMARK   57  A    between atoms: _145  and  _147
REMARK   58  A    between atoms: _147  and  _148
REMARK   59  A    between atoms: _147  and  _150
REMARK   60  A    between atoms: _150  and  _151
REMARK   61  A    between atoms: _156  and  _158
REMARK   62  A    between atoms: _158  and  _159
REMARK   63  A    between atoms: _158  and  _161
REMARK   64  A    between atoms: _161  and  _162
REMARK   65  A    between atoms: _162  and  _163
REMARK   66  A    between atoms: _166  and  _168
REMARK   67  A    between atoms: _168  and  _169
REMARK   68  A    between atoms: _168  and  _171
REMARK   69  A    between atoms: _174  and  _176
REMARK   70  A    between atoms: _176  and  _177
REMARK   71  A    between atoms: _176  and  _179
REMARK   72  A    between atoms: _179  and  _180
REMARK   73  A    between atoms: _185  and  _186
REMARK   74  A    between atoms: _188  and  _190
REMARK   75  A    between atoms: _190  and  _191
REMARK   76  A    between atoms: _190  and  _193
REMARK   77  A    between atoms: _193  and  _194
REMARK   78  A    between atoms: _199  and  _201
REMARK   79  A    between atoms: _201  and  _202
REMARK   80  A    between atoms: _201  and  _204
REMARK   81  A    between atoms: _207  and  _209
REMARK   82  A    between atoms: _209  and  _210
REMARK   83  A    between atoms: _213  and  _215
REMARK   84  A    between atoms: _215  and  _216
REMARK   85  A    between atoms: _215  and  _218
REMARK   86  A    between atoms: _218  and  _219
REMARK   87  A    between atoms: _222  and  _224
REMARK   88  A    between atoms: _224  and  _225
REMARK   89  A    between atoms: _224  and  _227
REMARK   90  A    between atoms: _227  and  _228
REMARK   91  A    between atoms: _231  and  _233
REMARK   92  A    between atoms: _233  and  _234
REMARK   93  A    between atoms: _233  and  _236
REMARK   94  A    between atoms: _236  and  _237
REMARK   95  A    between atoms: _240  and  _242
REMARK   96  A    between atoms: _242  and  _243
REMARK   97  A    between atoms: _242  and  _245
REMARK   98  A    between atoms: _245  and  _246
REMARK   99  A    between atoms: _251  and  _252
REMARK  100  A    between atoms: _254  and  _256
REMARK  101  A    between atoms: _256  and  _257
REMARK  102  A    between atoms: _260  and  _262
REMARK  103  A    between atoms: _262  and  _263
REMARK  104  A    between atoms: _262  and  _265
REMARK  105  A    between atoms: _265  and  _266
REMARK  106  A    between atoms: _266  and  _267
REMARK  107  A    between atoms: _270  and  _272
REMARK  108  A    between atoms: _272  and  _273
REMARK  109  A    between atoms: _272  and  _275
REMARK  110  A    between atoms: _275  and  _276
REMARK  111  A    between atoms: _281  and  _283
REMARK  112  A    between atoms: _283  and  _284
REMARK  113  A    between atoms: _283  and  _286
REMARK  114  A    between atoms: _286  and  _287
REMARK  115  A    between atoms: _293  and  _295
REMARK  116  A    between atoms: _295  and  _296
REMARK  117  A    between atoms: _298  and  _300
REMARK  118  A    between atoms: _300  and  _301
REMARK  119  A    between atoms: _300  and  _303
REMARK  120  A    between atoms: _303  and  _304
REMARK  121  A    between atoms: _309  and  _310
REMARK  122  A    between atoms: _312  and  _314
REMARK  123  A    between atoms: _314  and  _315
REMARK  124  A    between atoms: _314  and  _317
REMARK  125  A    between atoms: _317  and  _318
REMARK  126  A    between atoms: _321  and  _323
REMARK  127  A    between atoms: _323  and  _324
REMARK  128  A    between atoms: _323  and  _326
REMARK  129  A    between atoms: _326  and  _327
REMARK  130  A    between atoms: _332  and  _334
REMARK  131  A    between atoms: _334  and  _335
REMARK  132  A    between atoms: _334  and  _337
REMARK  133  A    between atoms: _337  and  _338
REMARK  134  A    between atoms: _343  and  _344
REMARK  135  A    between atoms: _346  and  _348
REMARK  136  A    between atoms: _348  and  _349
REMARK  137  A    between atoms: _348  and  _351
REMARK  138  A    between atoms: _351  and  _352
REMARK  139  A    between atoms: _355  and  _357
REMARK  140  A    between atoms: _357  and  _358
REMARK                            x       y       z     vdW  Elec       q    Type
REMARK                         _______ _______ _______ _____ _____    ______ ____
ROOT
ATOM      1  CA  LEU A   1      68.953  35.179  38.270  0.00  0.00    +0.145 C 
ENDROOT
BRANCH   1   2
ATOM      2  C   LEU A   1      68.113  36.448  38.181  0.00  0.00    +0.238 C 
ATOM      3  N   GLY A   2      67.190  36.602  39.117  0.00  0.00    -0.297 N 
ATOM      4  H   GLY A   2      67.119  35.874  39.856  0.00  0.00    +0.150 HD
ATOM      5  O   LEU A   1      68.312  37.256  37.295  0.00  0.00    -0.274 OA
BRANCH   3   6
ATOM      6  CA  GLY A   2      66.266  37.728  39.178  0.00  0.00    +0.163 C 
BRANCH   6   7
ATOM      7  C   GLY A   2      66.520  38.662  40.340  0.00  0.00    +0.229 C 
ATOM      8  O   GLY A   2      67.616  38.673  40.918  0.00  0.00    -0.286 OA
ENDBRANCH   6   7
ENDBRANCH   3   6
ENDBRANCH   1   2
BRANCH   1   9
ATOM      9  N   LEU A   1      69.419  34.911  39.644  0.00  0.00    -0.238 NA
ATOM     10  H   LEU A   1      69.041  34.098  40.172  0.00  0.00    +0.142 HD
ENDBRANCH   1   9
BRANCH   1  11
ATOM     11  CB  LEU A   1      68.156  34.012  37.713  0.00  0.00    +0.026 C 
BRANCH  11  12
ATOM     12  CG  LEU A   1      68.915  32.707  37.555  0.00  0.00    +0.002 C 
ATOM     13  CD2 LEU A   1      68.032  31.705  36.860  0.00  0.00    +0.000 C 
ATOM     14  CD1 LEU A   1      70.203  32.904  36.780  0.00  0.00    +0.000 C 
ENDBRANCH  11  12
ENDBRANCH   1  11
TORSDOF 6
REMARK  Name = ../refined-set-2016/4d1j/4d1j_pocket.pdb
REMARK  140 active torsions:
REMARK  status: ('A' for Active; 'I' for Inactive)
REMARK    1  A    between atoms: _1  and  _3
REMARK    2  A    between atoms: _3  and  _4
REMARK    3  A    between atoms: _3  and  _6
REMARK    4  A    between atoms: _6  and  _7
REMARK    5  A    between atoms: _7  and  _8
REMARK    6  A    between atoms: _13  and  _15
REMARK    7  A    between atoms: _15  and  _16
REMARK    8  A    between atoms: _15  and  _18
REMARK    9  A    between atoms: _18  and  _19
REMARK   10  A    between atoms: _22  and  _24
REMARK   11  A    between atoms: _24  and  _25
REMARK   12  A    between atoms: _24  and  _27
REMARK   13  A    between atoms: _27  and  _28
REMARK   14  A    between atoms: _33  and  _35
REMARK   15  A    between atoms: _35  and  _36
REMARK   16  A    between atoms: _35  and  _38
REMARK   17  A    between atoms: _38  and  _39
REMARK   18  A    between atoms: _45  and  _46
REMARK   19  A    between atoms: _51  and  _53
REMARK   20  A    between atoms: _53  and  _54
REMARK   21  A    between atoms: _53  and  _56
REMARK   22  A    between atoms: _56  and  _57
REMARK   23  A    between atoms: _60  and  _62
REMARK   24  A    between atoms: _62  and  _63
REMARK   25  A    between atoms: _62  and  _65
REMARK   26  A    between atoms: _65  and  _66
REMARK   27  A    between atoms: _72  and  _74
REMARK   28  A    between atoms: _74  and  _75
REMARK   29  A    between atoms: _74  and  _77
REMARK   30  A    between atoms: _77  and  _78
REMARK   31  A    between atoms: _78  and  _79
REMARK   32  A    between atoms: _79  and  _80
REMARK   33  A    between atoms: _80  and  _81
REMARK   34  A    between atoms: _85  and  _87
REMARK   35  A    between atoms: _87  and  _88
REMARK   36  A    between atoms: _87  and  _90
REMARK   37  A    between atoms: _90  and  _91
REMARK   38  A    between atoms: _96  and  _98
REMARK   39  A    between atoms: _98  and  _99
REMARK   40  A    between atoms: _98  and  _101
REMARK   41  A    between atoms: _101  and  _102
REMARK   42  A    between atoms: _107  and  _109
REMARK   43  A    between atoms: _109  and  _110
REMARK   44  A    between atoms: _109  and  _112
REMARK   45  A    between atoms: _112  and  _113
REMARK   46  A    between atoms: _118  and  _119
REMARK   47  A    between atoms: _121  and  _123
REMARK   48  A    between atoms: _123  and  _124
REMARK   49  A    between atoms: _123  and  _126
REMARK   50  A    between atoms: _126  and  _127
REMARK   51  A    between atoms: _127  and  _128
REMARK   52  A    between atoms: _133  and  _135
REMARK   53  A    between atoms: _135  and  _136
REMARK   54  A    between atoms: _135  and  _138
REMARK   55  A    between atoms: _138  and  _139
REMARK   56  A    between atoms: _139  and  _140
REMARK   57  A    between atoms: _145  and  _147
REMARK   58  A    between atoms: _147  and  _148
REMARK   59  A    between atoms: _147  and  _150
REMARK   60  A    between atoms: _150  and  _151
REMARK   61  A    between atoms: _156  and  _158
REMARK   62  A    between atoms: _158  and  _159
REMARK   63  A    between atoms: _158  and  _161
REMARK   64  A    between atoms: _161  and  _162
REMARK   65  A    between atoms: _162  and  _163
REMARK   66  A    between atoms: _166  and  _168
REMARK   67  A    between atoms: _168  and  _169
REMARK   68  A    between atoms: _168  and  _171
REMARK   69  A    between atoms: _174  and  _176
REMARK   70  A    between atoms: _176  and  _177
REMARK   71  A    between atoms: _176  and  _179
REMARK   72  A    between atoms: _179  and  _180
REMARK   73  A    between atoms: _185  and  _186
REMARK   74  A    between atoms: _188  and  _190
REMARK   75  A    between atoms: _190  and  _191
REMARK   76  A    between atoms: _190  and  _193
REMARK   77  A    between atoms: _193  and  _194
REMARK   78  A    between atoms: _199  and  _201
REMARK   79  A    between atoms: _201  and  _202
REMARK   80  A    between atoms: _201  and  _204
REMARK   81  A    between atoms: _207  and  _209
REMARK   82  A    between atoms: _209  and  _210
REMARK   83  A    between atoms: _213  and  _215
REMARK   84  A    between atoms: _215  and  _216
REMARK   85  A    between atoms: _215  and  _218
REMARK   86  A    between atoms: _218  and  _219
REMARK   87  A    between atoms: _222  and  _224
REMARK   88  A    between atoms: _224  and  _225
REMARK   89  A    between atoms: _224  and  _227
REMARK   90  A    between atoms: _227  and  _228
REMARK   91  A    between atoms: _231  and  _233
REMARK   92  A    between atoms: _233  and  _234
REMARK   93  A    between atoms: _233  and  _236
REMARK   94  A    between atoms: _236  and  _237
REMARK   95  A    between atoms: _240  and  _242
REMARK   96  A    between atoms: _242  and  _243
REMARK   97  A    between atoms: _242  and  _245
REMARK   98  A    between atoms: _245  and  _246
REMARK   99  A    between atoms: _251  and  _252
REMARK  100  A    between atoms: _254  and  _256
REMARK  101  A    between atoms: _256  and  _257
REMARK  102  A    between atoms: _260  and  _262
REMARK  103  A    between atoms: _262  and  _263
REMARK  104  A    between atoms: _262  and  _265
REMARK  105  A    between atoms: _265  and  _266
REMARK  106  A    between atoms: _266  and  _267
REMARK  107  A    between atoms: _270  and  _272
REMARK  108  A    between atoms: _272  and  _273
REMARK  109  A    between atoms: _272  and  _275
REMARK  110  A    between atoms: _275  and  _276
REMARK  111  A    between atoms: _281  and  _283
REMARK  112  A    between atoms: _283  and  _284
REMARK  113  A    between atoms: _283  and  _286
REMARK  114  A    between atoms: _286  and  _287
REMARK  115  A    between atoms: _293  and  _295
REMARK  116  A    between atoms: _295  and  _296
REMARK  117  A    between atoms: _298  and  _300
REMARK  118  A    between atoms: _300  and  _301
REMARK  119  A    between atoms: _300  and  _303
REMARK  120  A    between atoms: _303  and  _304
REMARK  121  A    between atoms: _309  and  _310
REMARK  122  A    between atoms: _312  and  _314
REMARK  123  A    between atoms: _314  and  _315
REMARK  124  A    between atoms: _314  and  _317
REMARK  125  A    between atoms: _317  and  _318
REMARK  126  A    between atoms: _321  and  _323
REMARK  127  A    between atoms: _323  and  _324
REMARK  128  A    between atoms: _323  and  _326
REMARK  129  A    between atoms: _326  and  _327
REMARK  130  A    between atoms: _332  and  _334
REMARK  131  A    between atoms: _334  and  _335
REMARK  132  A    between atoms: _334  and  _337
REMARK  133  A    between atoms: _337  and  _338
REMARK  134  A    between atoms: _343  and  _344
REMARK  135  A    between atoms: _346  and  _348
REMARK  136  A    between atoms: _348  and  _349
REMARK  137  A    between atoms: _348  and  _351
REMARK  138  A    between atoms: _351  and  _352
REMARK  139  A    between atoms: _355  and  _357
REMARK  140  A    between atoms: _357  and  _358
REMARK                            x       y       z     vdW  Elec       q    Type
REMARK                         _______ _______ _______ _____ _____    ______ ____
ROOT
ATOM      1  O   HOH     1      58.602  29.914  29.830  0.00  0.00    +0.000 OA
ENDROOT
TORSDOF 0
REMARK  Name = ../refined-set-2016/4d1j/4d1j_pocket.pdb
REMARK  140 active torsions:
REMARK  status: ('A' for Active; 'I' for Inactive)
REMARK    1  A    between atoms: _1  and  _3
REMARK    2  A    between atoms: _3  and  _4
REMARK    3  A    between atoms: _3  and  _6
REMARK    4  A    between atoms: _6  and  _7
REMARK    5  A    between atoms: _7  and  _8
REMARK    6  A    between atoms: _13  and  _15
REMARK    7  A    between atoms: _15  and  _16
REMARK    8  A    between atoms: _15  and  _18
REMARK    9  A    between atoms: _18  and  _19
REMARK   10  A    between atoms: _22  and  _24
REMARK   11  A    between atoms: _24  and  _25
REMARK   12  A    between atoms: _24  and  _27
REMARK   13  A    between atoms: _27  and  _28
REMARK   14  A    between atoms: _33  and  _35
REMARK   15  A    between atoms: _35  and  _36
REMARK   16  A    between atoms: _35  and  _38
REMARK   17  A    between atoms: _38  and  _39
REMARK   18  A    between atoms: _45  and  _46
REMARK   19  A    between atoms: _51  and  _53
REMARK   20  A    between atoms: _53  and  _54
REMARK   21  A    between atoms: _53  and  _56
REMARK   22  A    between atoms: _56  and  _57
REMARK   23  A    between atoms: _60  and  _62
REMARK   24  A    between atoms: _62  and  _63
REMARK   25  A    between atoms: _62  and  _65
REMARK   26  A    between atoms: _65  and  _66
REMARK   27  A    between atoms: _72  and  _74
REMARK   28  A    between atoms: _74  and  _75
REMARK   29  A    between atoms: _74  and  _77
REMARK   30  A    between atoms: _77  and  _78
REMARK   31  A    between atoms: _78  and  _79
REMARK   32  A    between atoms: _79  and  _80
REMARK   33  A    between atoms: _80  and  _81
REMARK   34  A    between atoms: _85  and  _87
REMARK   35  A    between atoms: _87  and  _88
REMARK   36  A    between atoms: _87  and  _90
REMARK   37  A    between atoms: _90  and  _91
REMARK   38  A    between atoms: _96  and  _98
REMARK   39  A    between atoms: _98  and  _99
REMARK   40  A    between atoms: _98  and  _101
REMARK   41  A    between atoms: _101  and  _102
REMARK   42  A    between atoms: _107  and  _109
REMARK   43  A    between atoms: _109  and  _110
REMARK   44  A    between atoms: _109  and  _112
REMARK   45  A    between atoms: _112  and  _113
REMARK   46  A    between atoms: _118  and  _119
REMARK   47  A    between atoms: _121  and  _123
REMARK   48  A    between atoms: _123  and  _124
REMARK   49  A    between atoms: _123  and  _126
REMARK   50  A    between atoms: _126  and  _127
REMARK   51  A    between atoms: _127  and  _128
REMARK   52  A    between atoms: _133  and  _135
REMARK   53  A    between atoms: _135  and  _136
REMARK   54  A    between atoms: _135  and  _138
REMARK   55  A    between atoms: _138  and  _139
REMARK   56  A    between atoms: _139  and  _140
REMARK   57  A    between atoms: _145  and  _147
REMARK   58  A    between atoms: _147  and  _148
REMARK   59  A    between atoms: _147  and  _150
REMARK   60  A    between atoms: _150  and  _151
REMARK   61  A    between atoms: _156  and  _158
REMARK   62  A    between atoms: _158  and  _159
REMARK   63  A    between atoms: _158  and  _161
REMARK   64  A    between atoms: _161  and  _162
REMARK   65  A    between atoms: _162  and  _163
REMARK   66  A    between atoms: _166  and  _168
REMARK   67  A    between atoms: _168  and  _169
REMARK   68  A    between atoms: _168  and  _171
REMARK   69  A    between atoms: _174  and  _176
REMARK   70  A    between atoms: _176  and  _177
REMARK   71  A    between atoms: _176  and  _179
REMARK   72  A    between atoms: _179  and  _180
REMARK   73  A    between atoms: _185  and  _186
REMARK   74  A    between atoms: _188  and  _190
REMARK   75  A    between atoms: _190  and  _191
REMARK   76  A    between atoms: _190  and  _193
REMARK   77  A    between atoms: _193  and  _194
REMARK   78  A    between atoms: _199  and  _201
REMARK   79  A    between atoms: _201  and  _202
REMARK   80  A    between atoms: _201  and  _204
REMARK   81  A    between atoms: _207  and  _209
REMARK   82  A    between atoms: _209  and  _210
REMARK   83  A    between atoms: _213  and  _215
REMARK   84  A    between atoms: _215  and  _216
REMARK   85  A    between atoms: _215  and  _218
REMARK   86  A    between atoms: _218  and  _219
REMARK   87  A    between atoms: _222  and  _224
REMARK   88  A    between atoms: _224  and  _225
REMARK   89  A    between atoms: _224  and  _227
REMARK   90  A    between atoms: _227  and  _228
REMARK   91  A    between atoms: _231  and  _233
REMARK   92  A    between atoms: _233  and  _234
REMARK   93  A    between atoms: _233  and  _236
REMARK   94  A    between atoms: _236  and  _237
REMARK   95  A    between atoms: _240  and  _242
REMARK   96  A    between atoms: _242  and  _243
REMARK   97  A    between atoms: _242  and  _245
REMARK   98  A    between atoms: _245  and  _246
REMARK   99  A    between atoms: _251  and  _252
REMARK  100  A    between atoms: _254  and  _256
REMARK  101  A    between atoms: _256  and  _257
REMARK  102  A    between atoms: _260  and  _262
REMARK  103  A    between atoms: _262  and  _263
REMARK  104  A    between atoms: _262  and  _265
REMARK  105  A    between atoms: _265  and  _266
REMARK  106  A    between atoms: _266  and  _267
REMARK  107  A    between atoms: _270  and  _272
REMARK  108  A    between atoms: _272  and  _273
REMARK  109  A    between atoms: _272  and  _275
REMARK  110  A    between atoms: _275  and  _276
REMARK  111  A    between atoms: _281  and  _283
REMARK  112  A    between atoms: _283  and  _284
REMARK  113  A    between atoms: _283  and  _286
REMARK  114  A    between atoms: _286  and  _287
REMARK  115  A    between atoms: _293  and  _295
REMARK  116  A    between atoms: _295  and  _296
REMARK  117  A    between atoms: _298  and  _300
REMARK  118  A    between atoms: _300  and  _301
REMARK  119  A    between atoms: _300  and  _303
REMARK  120  A    between atoms: _303  and  _304
REMARK  121  A    between atoms: _309  and  _310
REMARK  122  A    between atoms: _312  and  _314
REMARK  123  A    between atoms: _314  and  _315
REMARK  124  A    between atoms: _314  and  _317
REMARK  125  A    between atoms: _317  and  _318
REMARK  126  A    between atoms: _321  and  _323
REMARK  127  A    between atoms: _323  and  _324
REMARK  128  A    between atoms: _323  and  _326
REMARK  129  A    between atoms: _326  and  _327
REMARK  130  A    between atoms: _332  and  _334
REMARK  131  A    between atoms: _334  and  _335
REMARK  132  A    between atoms: _334  and  _337
REMARK  133  A    between atoms: _337  and  _338
REMARK  134  A    between atoms: _343  and  _344
REMARK  135  A    between atoms: _346  and  _348
REMARK  136  A    between atoms: _348  and  _349
REMARK  137  A    between atoms: _348  and  _351
REMARK  138  A    between atoms: _351  and  _352
REMARK  139  A    between atoms: _355  and  _357
REMARK  140  A    between atoms: _357  and  _358
REMARK                            x       y       z     vdW  Elec       q    Type
REMARK                         _______ _______ _______ _____ _____    ______ ____
ROOT
ATOM      1  O   HOH     1      56.334  29.528  35.660  0.00  0.00    +0.000 OA
ENDROOT
TORSDOF 0
REMARK  Name = ../refined-set-2016/4d1j/4d1j_pocket.pdb
REMARK  140 active torsions:
REMARK  status: ('A' for Active; 'I' for Inactive)
REMARK    1  A    between atoms: _1  and  _3
REMARK    2  A    between atoms: _3  and  _4
REMARK    3  A    between atoms: _3  and  _6
REMARK    4  A    between atoms: _6  and  _7
REMARK    5  A    between atoms: _7  and  _8
REMARK    6  A    between atoms: _13  and  _15
REMARK    7  A    between atoms: _15  and  _16
REMARK    8  A    between atoms: _15  and  _18
REMARK    9  A    between atoms: _18  and  _19
REMARK   10  A    between atoms: _22  and  _24
REMARK   11  A    between atoms: _24  and  _25
REMARK   12  A    between atoms: _24  and  _27
REMARK   13  A    between atoms: _27  and  _28
REMARK   14  A    between atoms: _33  and  _35
REMARK   15  A    between atoms: _35  and  _36
REMARK   16  A    between atoms: _35  and  _38
REMARK   17  A    between atoms: _38  and  _39
REMARK   18  A    between atoms: _45  and  _46
REMARK   19  A    between atoms: _51  and  _53
REMARK   20  A    between atoms: _53  and  _54
REMARK   21  A    between atoms: _53  and  _56
REMARK   22  A    between atoms: _56  and  _57
REMARK   23  A    between atoms: _60  and  _62
REMARK   24  A    between atoms: _62  and  _63
REMARK   25  A    between atoms: _62  and  _65
REMARK   26  A    between atoms: _65  and  _66
REMARK   27  A    between atoms: _72  and  _74
REMARK   28  A    between atoms: _74  and  _75
REMARK   29  A    between atoms: _74  and  _77
REMARK   30  A    between atoms: _77  and  _78
REMARK   31  A    between atoms: _78  and  _79
REMARK   32  A    between atoms: _79  and  _80
REMARK   33  A    between atoms: _80  and  _81
REMARK   34  A    between atoms: _85  and  _87
REMARK   35  A    between atoms: _87  and  _88
REMARK   36  A    between atoms: _87  and  _90
REMARK   37  A    between atoms: _90  and  _91
REMARK   38  A    between atoms: _96  and  _98
REMARK   39  A    between atoms: _98  and  _99
REMARK   40  A    between atoms: _98  and  _101
REMARK   41  A    between atoms: _101  and  _102
REMARK   42  A    between atoms: _107  and  _109
REMARK   43  A    between atoms: _109  and  _110
REMARK   44  A    between atoms: _109  and  _112
REMARK   45  A    between atoms: _112  and  _113
REMARK   46  A    between atoms: _118  and  _119
REMARK   47  A    between atoms: _121  and  _123
REMARK   48  A    between atoms: _123  and  _124
REMARK   49  A    between atoms: _123  and  _126
REMARK   50  A    between atoms: _126  and  _127
REMARK   51  A    between atoms: _127  and  _128
REMARK   52  A    between atoms: _133  and  _135
REMARK   53  A    between atoms: _135  and  _136
REMARK   54  A    between atoms: _135  and  _138
REMARK   55  A    between atoms: _138  and  _139
REMARK   56  A    between atoms: _139  and  _140
REMARK   57  A    between atoms: _145  and  _147
REMARK   58  A    between atoms: _147  and  _148
REMARK   59  A    between atoms: _147  and  _150
REMARK   60  A    between atoms: _150  and  _151
REMARK   61  A    between atoms: _156  and  _158
REMARK   62  A    between atoms: _158  and  _159
REMARK   63  A    between atoms: _158  and  _161
REMARK   64  A    between atoms: _161  and  _162
REMARK   65  A    between atoms: _162  and  _163
REMARK   66  A    between atoms: _166  and  _168
REMARK   67  A    between atoms: _168  and  _169
REMARK   68  A    between atoms: _168  and  _171
REMARK   69  A    between atoms: _174  and  _176
REMARK   70  A    between atoms: _176  and  _177
REMARK   71  A    between atoms: _176  and  _179
REMARK   72  A    between atoms: _179  and  _180
REMARK   73  A    between atoms: _185  and  _186
REMARK   74  A    between atoms: _188  and  _190
REMARK   75  A    between atoms: _190  and  _191
REMARK   76  A    between atoms: _190  and  _193
REMARK   77  A    between atoms: _193  and  _194
REMARK   78  A    between atoms: _199  and  _201
REMARK   79  A    between atoms: _201  and  _202
REMARK   80  A    between atoms: _201  and  _204
REMARK   81  A    between atoms: _207  and  _209
REMARK   82  A    between atoms: _209  and  _210
REMARK   83  A    between atoms: _213  and  _215
REMARK   84  A    between atoms: _215  and  _216
REMARK   85  A    between atoms: _215  and  _218
REMARK   86  A    between atoms: _218  and  _219
REMARK   87  A    between atoms: _222  and  _224
REMARK   88  A    between atoms: _224  and  _225
REMARK   89  A    between atoms: _224  and  _227
REMARK   90  A    between atoms: _227  and  _228
REMARK   91  A    between atoms: _231  and  _233
REMARK   92  A    between atoms: _233  and  _234
REMARK   93  A    between atoms: _233  and  _236
REMARK   94  A    between atoms: _236  and  _237
REMARK   95  A    between atoms: _240  and  _242
REMARK   96  A    between atoms: _242  and  _243
REMARK   97  A    between atoms: _242  and  _245
REMARK   98  A    between atoms: _245  and  _246
REMARK   99  A    between atoms: _251  and  _252
REMARK  100  A    between atoms: _254  and  _256
REMARK  101  A    between atoms: _256  and  _257
REMARK  102  A    between atoms: _260  and  _262
REMARK  103  A    between atoms: _262  and  _263
REMARK  104  A    between atoms: _262  and  _265
REMARK  105  A    between atoms: _265  and  _266
REMARK  106  A    between atoms: _266  and  _267
REMARK  107  A    between atoms: _270  and  _272
REMARK  108  A    between atoms: _272  and  _273
REMARK  109  A    between atoms: _272  and  _275
REMARK  110  A    between atoms: _275  and  _276
REMARK  111  A    between atoms: _281  and  _283
REMARK  112  A    between atoms: _283  and  _284
REMARK  113  A    between atoms: _283  and  _286
REMARK  114  A    between atoms: _286  and  _287
REMARK  115  A    between atoms: _293  and  _295
REMARK  116  A    between atoms: _295  and  _296
REMARK  117  A    between atoms: _298  and  _300
REMARK  118  A    between atoms: _300  and  _301
REMARK  119  A    between atoms: _300  and  _303
REMARK  120  A    between atoms: _303  and  _304
REMARK  121  A    between atoms: _309  and  _310
REMARK  122  A    between atoms: _312  and  _314
REMARK  123  A    between atoms: _314  and  _315
REMARK  124  A    between atoms: _314  and  _317
REMARK  125  A    between atoms: _317  and  _318
REMARK  126  A    between atoms: _321  and  _323
REMARK  127  A    between atoms: _323  and  _324
REMARK  128  A    between atoms: _323  and  _326
REMARK  129  A    between atoms: _326  and  _327
REMARK  130  A    between atoms: _332  and  _334
REMARK  131  A    between atoms: _334  and  _335
REMARK  132  A    between atoms: _334  and  _337
REMARK  133  A    between atoms: _337  and  _338
REMARK  134  A    between atoms: _343  and  _344
REMARK  135  A    between atoms: _346  and  _348
REMARK  136  A    between atoms: _348  and  _349
REMARK  137  A    between atoms: _348  and  _351
REMARK  138  A    between atoms: _351  and  _352
REMARK  139  A    between atoms: _355  and  _357
REMARK  140  A    between atoms: _357  and  _358
REMARK                            x       y       z     vdW  Elec       q    Type
REMARK                         _______ _______ _______ _____ _____    ______ ____
ROOT
ATOM      1  O   HOH     1      58.645  28.312  32.677  0.00  0.00    +0.000 OA
ENDROOT
TORSDOF 0
REMARK  Name = ../refined-set-2016/4d1j/4d1j_pocket.pdb
REMARK  140 active torsions:
REMARK  status: ('A' for Active; 'I' for Inactive)
REMARK    1  A    between atoms: _1  and  _3
REMARK    2  A    between atoms: _3  and  _4
REMARK    3  A    between atoms: _3  and  _6
REMARK    4  A    between atoms: _6  and  _7
REMARK    5  A    between atoms: _7  and  _8
REMARK    6  A    between atoms: _13  and  _15
REMARK    7  A    between atoms: _15  and  _16
REMARK    8  A    between atoms: _15  and  _18
REMARK    9  A    between atoms: _18  and  _19
REMARK   10  A    between atoms: _22  and  _24
REMARK   11  A    between atoms: _24  and  _25
REMARK   12  A    between atoms: _24  and  _27
REMARK   13  A    between atoms: _27  and  _28
REMARK   14  A    between atoms: _33  and  _35
REMARK   15  A    between atoms: _35  and  _36
REMARK   16  A    between atoms: _35  and  _38
REMARK   17  A    between atoms: _38  and  _39
REMARK   18  A    between atoms: _45  and  _46
REMARK   19  A    between atoms: _51  and  _53
REMARK   20  A    between atoms: _53  and  _54
REMARK   21  A    between atoms: _53  and  _56
REMARK   22  A    between atoms: _56  and  _57
REMARK   23  A    between atoms: _60  and  _62
REMARK   24  A    between atoms: _62  and  _63
REMARK   25  A    between atoms: _62  and  _65
REMARK   26  A    between atoms: _65  and  _66
REMARK   27  A    between atoms: _72  and  _74
REMARK   28  A    between atoms: _74  and  _75
REMARK   29  A    between atoms: _74  and  _77
REMARK   30  A    between atoms: _77  and  _78
REMARK   31  A    between atoms: _78  and  _79
REMARK   32  A    between atoms: _79  and  _80
REMARK   33  A    between atoms: _80  and  _81
REMARK   34  A    between atoms: _85  and  _87
REMARK   35  A    between atoms: _87  and  _88
REMARK   36  A    between atoms: _87  and  _90
REMARK   37  A    between atoms: _90  and  _91
REMARK   38  A    between atoms: _96  and  _98
REMARK   39  A    between atoms: _98  and  _99
REMARK   40  A    between atoms: _98  and  _101
REMARK   41  A    between atoms: _101  and  _102
REMARK   42  A    between atoms: _107  and  _109
REMARK   43  A    between atoms: _109  and  _110
REMARK   44  A    between atoms: _109  and  _112
REMARK   45  A    between atoms: _112  and  _113
REMARK   46  A    between atoms: _118  and  _119
REMARK   47  A    between atoms: _121  and  _123
REMARK   48  A    between atoms: _123  and  _124
REMARK   49  A    between atoms: _123  and  _126
REMARK   50  A    between atoms: _126  and  _127
REMARK   51  A    between atoms: _127  and  _128
REMARK   52  A    between atoms: _133  and  _135
REMARK   53  A    between atoms: _135  and  _136
REMARK   54  A    between atoms: _135  and  _138
REMARK   55  A    between atoms: _138  and  _139
REMARK   56  A    between atoms: _139  and  _140
REMARK   57  A    between atoms: _145  and  _147
REMARK   58  A    between atoms: _147  and  _148
REMARK   59  A    between atoms: _147  and  _150
REMARK   60  A    between atoms: _150  and  _151
REMARK   61  A    between atoms: _156  and  _158
REMARK   62  A    between atoms: _158  and  _159
REMARK   63  A    between atoms: _158  and  _161
REMARK   64  A    between atoms: _161  and  _162
REMARK   65  A    between atoms: _162  and  _163
REMARK   66  A    between atoms: _166  and  _168
REMARK   67  A    between atoms: _168  and  _169
REMARK   68  A    between atoms: _168  and  _171
REMARK   69  A    between atoms: _174  and  _176
REMARK   70  A    between atoms: _176  and  _177
REMARK   71  A    between atoms: _176  and  _179
REMARK   72  A    between atoms: _179  and  _180
REMARK   73  A    between atoms: _185  and  _186
REMARK   74  A    between atoms: _188  and  _190
REMARK   75  A    between atoms: _190  and  _191
REMARK   76  A    between atoms: _190  and  _193
REMARK   77  A    between atoms: _193  and  _194
REMARK   78  A    between atoms: _199  and  _201
REMARK   79  A    between atoms: _201  and  _202
REMARK   80  A    between atoms: _201  and  _204
REMARK   81  A    between atoms: _207  and  _209
REMARK   82  A    between atoms: _209  and  _210
REMARK   83  A    between atoms: _213  and  _215
REMARK   84  A    between atoms: _215  and  _216
REMARK   85  A    between atoms: _215  and  _218
REMARK   86  A    between atoms: _218  and  _219
REMARK   87  A    between atoms: _222  and  _224
REMARK   88  A    between atoms: _224  and  _225
REMARK   89  A    between atoms: _224  and  _227
REMARK   90  A    between atoms: _227  and  _228
REMARK   91  A    between atoms: _231  and  _233
REMARK   92  A    between atoms: _233  and  _234
REMARK   93  A    between atoms: _233  and  _236
REMARK   94  A    between atoms: _236  and  _237
REMARK   95  A    between atoms: _240  and  _242
REMARK   96  A    between atoms: _242  and  _243
REMARK   97  A    between atoms: _242  and  _245
REMARK   98  A    between atoms: _245  and  _246
REMARK   99  A    between atoms: _251  and  _252
REMARK  100  A    between atoms: _254  and  _256
REMARK  101  A    between atoms: _256  and  _257
REMARK  102  A    between atoms: _260  and  _262
REMARK  103  A    between atoms: _262  and  _263
REMARK  104  A    between atoms: _262  and  _265
REMARK  105  A    between atoms: _265  and  _266
REMARK  106  A    between atoms: _266  and  _267
REMARK  107  A    between atoms: _270  and  _272
REMARK  108  A    between atoms: _272  and  _273
REMARK  109  A    between atoms: _272  and  _275
REMARK  110  A    between atoms: _275  and  _276
REMARK  111  A    between atoms: _281  and  _283
REMARK  112  A    between atoms: _283  and  _284
REMARK  113  A    between atoms: _283  and  _286
REMARK  114  A    between atoms: _286  and  _287
REMARK  115  A    between atoms: _293  and  _295
REMARK  116  A    between atoms: _295  and  _296
REMARK  117  A    between atoms: _298  and  _300
REMARK  118  A    between atoms: _300  and  _301
REMARK  119  A    between atoms: _300  and  _303
REMARK  120  A    between atoms: _303  and  _304
REMARK  121  A    between atoms: _309  and  _310
REMARK  122  A    between atoms: _312  and  _314
REMARK  123  A    between atoms: _314  and  _315
REMARK  124  A    between atoms: _314  and  _317
REMARK  125  A    between atoms: _317  and  _318
REMARK  126  A    between atoms: _321  and  _323
REMARK  127  A    between atoms: _323  and  _324
REMARK  128  A    between atoms: _323  and  _326
REMARK  129  A    between atoms: _326  and  _327
REMARK  130  A    between atoms: _332  and  _334
REMARK  131  A    between atoms: _334  and  _335
REMARK  132  A    between atoms: _334  and  _337
REMARK  133  A    between atoms: _337  and  _338
REMARK  134  A    between atoms: _343  and  _344
REMARK  135  A    between atoms: _346  and  _348
REMARK  136  A    between atoms: _348  and  _349
REMARK  137  A    between atoms: _348  and  _351
REMARK  138  A    between atoms: _351  and  _352
REMARK  139  A    between atoms: _355  and  _357
REMARK  140  A    between atoms: _357  and  _358
REMARK                            x       y       z     vdW  Elec       q    Type
REMARK                         _______ _______ _______ _____ _____    ______ ____
ROOT
ATOM      1  O   HOH     1      59.520  29.900  40.039  0.00  0.00    +0.000 OA
ENDROOT
TORSDOF 0
REMARK  Name = ../refined-set-2016/4d1j/4d1j_pocket.pdb
REMARK  140 active torsions:
REMARK  status: ('A' for Active; 'I' for Inactive)
REMARK    1  A    between atoms: _1  and  _3
REMARK    2  A    between atoms: _3  and  _4
REMARK    3  A    between atoms: _3  and  _6
REMARK    4  A    between atoms: _6  and  _7
REMARK    5  A    between atoms: _7  and  _8
REMARK    6  A    between atoms: _13  and  _15
REMARK    7  A    between atoms: _15  and  _16
REMARK    8  A    between atoms: _15  and  _18
REMARK    9  A    between atoms: _18  and  _19
REMARK   10  A    between atoms: _22  and  _24
REMARK   11  A    between atoms: _24  and  _25
REMARK   12  A    between atoms: _24  and  _27
REMARK   13  A    between atoms: _27  and  _28
REMARK   14  A    between atoms: _33  and  _35
REMARK   15  A    between atoms: _35  and  _36
REMARK   16  A    between atoms: _35  and  _38
REMARK   17  A    between atoms: _38  and  _39
REMARK   18  A    between atoms: _45  and  _46
REMARK   19  A    between atoms: _51  and  _53
REMARK   20  A    between atoms: _53  and  _54
REMARK   21  A    between atoms: _53  and  _56
REMARK   22  A    between atoms: _56  and  _57
REMARK   23  A    between atoms: _60  and  _62
REMARK   24  A    between atoms: _62  and  _63
REMARK   25  A    between atoms: _62  and  _65
REMARK   26  A    between atoms: _65  and  _66
REMARK   27  A    between atoms: _72  and  _74
REMARK   28  A    between atoms: _74  and  _75
REMARK   29  A    between atoms: _74  and  _77
REMARK   30  A    between atoms: _77  and  _78
REMARK   31  A    between atoms: _78  and  _79
REMARK   32  A    between atoms: _79  and  _80
REMARK   33  A    between atoms: _80  and  _81
REMARK   34  A    between atoms: _85  and  _87
REMARK   35  A    between atoms: _87  and  _88
REMARK   36  A    between atoms: _87  and  _90
REMARK   37  A    between atoms: _90  and  _91
REMARK   38  A    between atoms: _96  and  _98
REMARK   39  A    between atoms: _98  and  _99
REMARK   40  A    between atoms: _98  and  _101
REMARK   41  A    between atoms: _101  and  _102
REMARK   42  A    between atoms: _107  and  _109
REMARK   43  A    between atoms: _109  and  _110
REMARK   44  A    between atoms: _109  and  _112
REMARK   45  A    between atoms: _112  and  _113
REMARK   46  A    between atoms: _118  and  _119
REMARK   47  A    between atoms: _121  and  _123
REMARK   48  A    between atoms: _123  and  _124
REMARK   49  A    between atoms: _123  and  _126
REMARK   50  A    between atoms: _126  and  _127
REMARK   51  A    between atoms: _127  and  _128
REMARK   52  A    between atoms: _133  and  _135
REMARK   53  A    between atoms: _135  and  _136
REMARK   54  A    between atoms: _135  and  _138
REMARK   55  A    between atoms: _138  and  _139
REMARK   56  A    between atoms: _139  and  _140
REMARK   57  A    between atoms: _145  and  _147
REMARK   58  A    between atoms: _147  and  _148
REMARK   59  A    between atoms: _147  and  _150
REMARK   60  A    between atoms: _150  and  _151
REMARK   61  A    between atoms: _156  and  _158
REMARK   62  A    between atoms: _158  and  _159
REMARK   63  A    between atoms: _158  and  _161
REMARK   64  A    between atoms: _161  and  _162
REMARK   65  A    between atoms: _162  and  _163
REMARK   66  A    between atoms: _166  and  _168
REMARK   67  A    between atoms: _168  and  _169
REMARK   68  A    between atoms: _168  and  _171
REMARK   69  A    between atoms: _174  and  _176
REMARK   70  A    between atoms: _176  and  _177
REMARK   71  A    between atoms: _176  and  _179
REMARK   72  A    between atoms: _179  and  _180
REMARK   73  A    between atoms: _185  and  _186
REMARK   74  A    between atoms: _188  and  _190
REMARK   75  A    between atoms: _190  and  _191
REMARK   76  A    between atoms: _190  and  _193
REMARK   77  A    between atoms: _193  and  _194
REMARK   78  A    between atoms: _199  and  _201
REMARK   79  A    between atoms: _201  and  _202
REMARK   80  A    between atoms: _201  and  _204
REMARK   81  A    between atoms: _207  and  _209
REMARK   82  A    between atoms: _209  and  _210
REMARK   83  A    between atoms: _213  and  _215
REMARK   84  A    between atoms: _215  and  _216
REMARK   85  A    between atoms: _215  and  _218
REMARK   86  A    between atoms: _218  and  _219
REMARK   87  A    between atoms: _222  and  _224
REMARK   88  A    between atoms: _224  and  _225
REMARK   89  A    between atoms: _224  and  _227
REMARK   90  A    between atoms: _227  and  _228
REMARK   91  A    between atoms: _231  and  _233
REMARK   92  A    between atoms: _233  and  _234
REMARK   93  A    between atoms: _233  and  _236
REMARK   94  A    between atoms: _236  and  _237
REMARK   95  A    between atoms: _240  and  _242
REMARK   96  A    between atoms: _242  and  _243
REMARK   97  A    between atoms: _242  and  _245
REMARK   98  A    between atoms: _245  and  _246
REMARK   99  A    between atoms: _251  and  _252
REMARK  100  A    between atoms: _254  and  _256
REMARK  101  A    between atoms: _256  and  _257
REMARK  102  A    between atoms: _260  and  _262
REMARK  103  A    between atoms: _262  and  _263
REMARK  104  A    between atoms: _262  and  _265
REMARK  105  A    between atoms: _265  and  _266
REMARK  106  A    between atoms: _266  and  _267
REMARK  107  A    between atoms: _270  and  _272
REMARK  108  A    between atoms: _272  and  _273
REMARK  109  A    between atoms: _272  and  _275
REMARK  110  A    between atoms: _275  and  _276
REMARK  111  A    between atoms: _281  and  _283
REMARK  112  A    between atoms: _283  and  _284
REMARK  113  A    between atoms: _283  and  _286
REMARK  114  A    between atoms: _286  and  _287
REMARK  115  A    between atoms: _293  and  _295
REMARK  116  A    between atoms: _295  and  _296
REMARK  117  A    between atoms: _298  and  _300
REMARK  118  A    between atoms: _300  and  _301
REMARK  119  A    between atoms: _300  and  _303
REMARK  120  A    between atoms: _303  and  _304
REMARK  121  A    between atoms: _309  and  _310
REMARK  122  A    between atoms: _312  and  _314
REMARK  123  A    between atoms: _314  and  _315
REMARK  124  A    between atoms: _314  and  _317
REMARK  125  A    between atoms: _317  and  _318
REMARK  126  A    between atoms: _321  and  _323
REMARK  127  A    between atoms: _323  and  _324
REMARK  128  A    between atoms: _323  and  _326
REMARK  129  A    between atoms: _326  and  _327
REMARK  130  A    between atoms: _332  and  _334
REMARK  131  A    between atoms: _334  and  _335
REMARK  132  A    between atoms: _334  and  _337
REMARK  133  A    between atoms: _337  and  _338
REMARK  134  A    between atoms: _343  and  _344
REMARK  135  A    between atoms: _346  and  _348
REMARK  136  A    between atoms: _348  and  _349
REMARK  137  A    between atoms: _348  and  _351
REMARK  138  A    between atoms: _351  and  _352
REMARK  139  A    between atoms: _355  and  _357
REMARK  140  A    between atoms: _357  and  _358
REMARK                            x       y       z     vdW  Elec       q    Type
REMARK                         _______ _______ _______ _____ _____    ______ ____
ROOT
ATOM      1  O   HOH     1      61.435  34.455  40.721  0.00  0.00    +0.000 OA
ENDROOT
TORSDOF 0
REMARK  Name = ../refined-set-2016/4d1j/4d1j_pocket.pdb
REMARK  140 active torsions:
REMARK  status: ('A' for Active; 'I' for Inactive)
REMARK    1  A    between atoms: _1  and  _3
REMARK    2  A    between atoms: _3  and  _4
REMARK    3  A    between atoms: _3  and  _6
REMARK    4  A    between atoms: _6  and  _7
REMARK    5  A    between atoms: _7  and  _8
REMARK    6  A    between atoms: _13  and  _15
REMARK    7  A    between atoms: _15  and  _16
REMARK    8  A    between atoms: _15  and  _18
REMARK    9  A    between atoms: _18  and  _19
REMARK   10  A    between atoms: _22  and  _24
REMARK   11  A    between atoms: _24  and  _25
REMARK   12  A    between atoms: _24  and  _27
REMARK   13  A    between atoms: _27  and  _28
REMARK   14  A    between atoms: _33  and  _35
REMARK   15  A    between atoms: _35  and  _36
REMARK   16  A    between atoms: _35  and  _38
REMARK   17  A    between atoms: _38  and  _39
REMARK   18  A    between atoms: _45  and  _46
REMARK   19  A    between atoms: _51  and  _53
REMARK   20  A    between atoms: _53  and  _54
REMARK   21  A    between atoms: _53  and  _56
REMARK   22  A    between atoms: _56  and  _57
REMARK   23  A    between atoms: _60  and  _62
REMARK   24  A    between atoms: _62  and  _63
REMARK   25  A    between atoms: _62  and  _65
REMARK   26  A    between atoms: _65  and  _66
REMARK   27  A    between atoms: _72  and  _74
REMARK   28  A    between atoms: _74  and  _75
REMARK   29  A    between atoms: _74  and  _77
REMARK   30  A    between atoms: _77  and  _78
REMARK   31  A    between atoms: _78  and  _79
REMARK   32  A    between atoms: _79  and  _80
REMARK   33  A    between atoms: _80  and  _81
REMARK   34  A    between atoms: _85  and  _87
REMARK   35  A    between atoms: _87  and  _88
REMARK   36  A    between atoms: _87  and  _90
REMARK   37  A    between atoms: _90  and  _91
REMARK   38  A    between atoms: _96  and  _98
REMARK   39  A    between atoms: _98  and  _99
REMARK   40  A    between atoms: _98  and  _101
REMARK   41  A    between atoms: _101  and  _102
REMARK   42  A    between atoms: _107  and  _109
REMARK   43  A    between atoms: _109  and  _110
REMARK   44  A    between atoms: _109  and  _112
REMARK   45  A    between atoms: _112  and  _113
REMARK   46  A    between atoms: _118  and  _119
REMARK   47  A    between atoms: _121  and  _123
REMARK   48  A    between atoms: _123  and  _124
REMARK   49  A    between atoms: _123  and  _126
REMARK   50  A    between atoms: _126  and  _127
REMARK   51  A    between atoms: _127  and  _128
REMARK   52  A    between atoms: _133  and  _135
REMARK   53  A    between atoms: _135  and  _136
REMARK   54  A    between atoms: _135  and  _138
REMARK   55  A    between atoms: _138  and  _139
REMARK   56  A    between atoms: _139  and  _140
REMARK   57  A    between atoms: _145  and  _147
REMARK   58  A    between atoms: _147  and  _148
REMARK   59  A    between atoms: _147  and  _150
REMARK   60  A    between atoms: _150  and  _151
REMARK   61  A    between atoms: _156  and  _158
REMARK   62  A    between atoms: _158  and  _159
REMARK   63  A    between atoms: _158  and  _161
REMARK   64  A    between atoms: _161  and  _162
REMARK   65  A    between atoms: _162  and  _163
REMARK   66  A    between atoms: _166  and  _168
REMARK   67  A    between atoms: _168  and  _169
REMARK   68  A    between atoms: _168  and  _171
REMARK   69  A    between atoms: _174  and  _176
REMARK   70  A    between atoms: _176  and  _177
REMARK   71  A    between atoms: _176  and  _179
REMARK   72  A    between atoms: _179  and  _180
REMARK   73  A    between atoms: _185  and  _186
REMARK   74  A    between atoms: _188  and  _190
REMARK   75  A    between atoms: _190  and  _191
REMARK   76  A    between atoms: _190  and  _193
REMARK   77  A    between atoms: _193  and  _194
REMARK   78  A    between atoms: _199  and  _201
REMARK   79  A    between atoms: _201  and  _202
REMARK   80  A    between atoms: _201  and  _204
REMARK   81  A    between atoms: _207  and  _209
REMARK   82  A    between atoms: _209  and  _210
REMARK   83  A    between atoms: _213  and  _215
REMARK   84  A    between atoms: _215  and  _216
REMARK   85  A    between atoms: _215  and  _218
REMARK   86  A    between atoms: _218  and  _219
REMARK   87  A    between atoms: _222  and  _224
REMARK   88  A    between atoms: _224  and  _225
REMARK   89  A    between atoms: _224  and  _227
REMARK   90  A    between atoms: _227  and  _228
REMARK   91  A    between atoms: _231  and  _233
REMARK   92  A    between atoms: _233  and  _234
REMARK   93  A    between atoms: _233  and  _236
REMARK   94  A    between atoms: _236  and  _237
REMARK   95  A    between atoms: _240  and  _242
REMARK   96  A    between atoms: _242  and  _243
REMARK   97  A    between atoms: _242  and  _245
REMARK   98  A    between atoms: _245  and  _246
REMARK   99  A    between atoms: _251  and  _252
REMARK  100  A    between atoms: _254  and  _256
REMARK  101  A    between atoms: _256  and  _257
REMARK  102  A    between atoms: _260  and  _262
REMARK  103  A    between atoms: _262  and  _263
REMARK  104  A    between atoms: _262  and  _265
REMARK  105  A    between atoms: _265  and  _266
REMARK  106  A    between atoms: _266  and  _267
REMARK  107  A    between atoms: _270  and  _272
REMARK  108  A    between atoms: _272  and  _273
REMARK  109  A    between atoms: _272  and  _275
REMARK  110  A    between atoms: _275  and  _276
REMARK  111  A    between atoms: _281  and  _283
REMARK  112  A    between atoms: _283  and  _284
REMARK  113  A    between atoms: _283  and  _286
REMARK  114  A    between atoms: _286  and  _287
REMARK  115  A    between atoms: _293  and  _295
REMARK  116  A    between atoms: _295  and  _296
REMARK  117  A    between atoms: _298  and  _300
REMARK  118  A    between atoms: _300  and  _301
REMARK  119  A    between atoms: _300  and  _303
REMARK  120  A    between atoms: _303  and  _304
REMARK  121  A    between atoms: _309  and  _310
REMARK  122  A    between atoms: _312  and  _314
REMARK  123  A    between atoms: _314  and  _315
REMARK  124  A    between atoms: _314  and  _317
REMARK  125  A    between atoms: _317  and  _318
REMARK  126  A    between atoms: _321  and  _323
REMARK  127  A    between atoms: _323  and  _324
REMARK  128  A    between atoms: _323  and  _326
REMARK  129  A    between atoms: _326  and  _327
REMARK  130  A    between atoms: _332  and  _334
REMARK  131  A    between atoms: _334  and  _335
REMARK  132  A    between atoms: _334  and  _337
REMARK  133  A    between atoms: _337  and  _338
REMARK  134  A    between atoms: _343  and  _344
REMARK  135  A    between atoms: _346  and  _348
REMARK  136  A    between atoms: _348  and  _349
REMARK  137  A    between atoms: _348  and  _351
REMARK  138  A    between atoms: _351  and  _352
REMARK  139  A    between atoms: _355  and  _357
REMARK  140  A    between atoms: _357  and  _358
REMARK                            x       y       z     vdW  Elec       q    Type
REMARK                         _______ _______ _______ _____ _____    ______ ____
ROOT
ATOM      1  O   HOH     1      69.087  28.734  35.182  0.00  0.00    +0.000 OA
ENDROOT
TORSDOF 0
REMARK  Name = ../refined-set-2016/4d1j/4d1j_pocket.pdb
REMARK  140 active torsions:
REMARK  status: ('A' for Active; 'I' for Inactive)
REMARK    1  A    between atoms: _1  and  _3
REMARK    2  A    between atoms: _3  and  _4
REMARK    3  A    between atoms: _3  and  _6
REMARK    4  A    between atoms: _6  and  _7
REMARK    5  A    between atoms: _7  and  _8
REMARK    6  A    between atoms: _13  and  _15
REMARK    7  A    between atoms: _15  and  _16
REMARK    8  A    between atoms: _15  and  _18
REMARK    9  A    between atoms: _18  and  _19
REMARK   10  A    between atoms: _22  and  _24
REMARK   11  A    between atoms: _24  and  _25
REMARK   12  A    between atoms: _24  and  _27
REMARK   13  A    between atoms: _27  and  _28
REMARK   14  A    between atoms: _33  and  _35
REMARK   15  A    between atoms: _35  and  _36
REMARK   16  A    between atoms: _35  and  _38
REMARK   17  A    between atoms: _38  and  _39
REMARK   18  A    between atoms: _45  and  _46
REMARK   19  A    between atoms: _51  and  _53
REMARK   20  A    between atoms: _53  and  _54
REMARK   21  A    between atoms: _53  and  _56
REMARK   22  A    between atoms: _56  and  _57
REMARK   23  A    between atoms: _60  and  _62
REMARK   24  A    between atoms: _62  and  _63
REMARK   25  A    between atoms: _62  and  _65
REMARK   26  A    between atoms: _65  and  _66
REMARK   27  A    between atoms: _72  and  _74
REMARK   28  A    between atoms: _74  and  _75
REMARK   29  A    between atoms: _74  and  _77
REMARK   30  A    between atoms: _77  and  _78
REMARK   31  A    between atoms: _78  and  _79
REMARK   32  A    between atoms: _79  and  _80
REMARK   33  A    between atoms: _80  and  _81
REMARK   34  A    between atoms: _85  and  _87
REMARK   35  A    between atoms: _87  and  _88
REMARK   36  A    between atoms: _87  and  _90
REMARK   37  A    between atoms: _90  and  _91
REMARK   38  A    between atoms: _96  and  _98
REMARK   39  A    between atoms: _98  and  _99
REMARK   40  A    between atoms: _98  and  _101
REMARK   41  A    between atoms: _101  and  _102
REMARK   42  A    between atoms: _107  and  _109
REMARK   43  A    between atoms: _109  and  _110
REMARK   44  A    between atoms: _109  and  _112
REMARK   45  A    between atoms: _112  and  _113
REMARK   46  A    between atoms: _118  and  _119
REMARK   47  A    between atoms: _121  and  _123
REMARK   48  A    between atoms: _123  and  _124
REMARK   49  A    between atoms: _123  and  _126
REMARK   50  A    between atoms: _126  and  _127
REMARK   51  A    between atoms: _127  and  _128
REMARK   52  A    between atoms: _133  and  _135
REMARK   53  A    between atoms: _135  and  _136
REMARK   54  A    between atoms: _135  and  _138
REMARK   55  A    between atoms: _138  and  _139
REMARK   56  A    between atoms: _139  and  _140
REMARK   57  A    between atoms: _145  and  _147
REMARK   58  A    between atoms: _147  and  _148
REMARK   59  A    between atoms: _147  and  _150
REMARK   60  A    between atoms: _150  and  _151
REMARK   61  A    between atoms: _156  and  _158
REMARK   62  A    between atoms: _158  and  _159
REMARK   63  A    between atoms: _158  and  _161
REMARK   64  A    between atoms: _161  and  _162
REMARK   65  A    between atoms: _162  and  _163
REMARK   66  A    between atoms: _166  and  _168
REMARK   67  A    between atoms: _168  and  _169
REMARK   68  A    between atoms: _168  and  _171
REMARK   69  A    between atoms: _174  and  _176
REMARK   70  A    between atoms: _176  and  _177
REMARK   71  A    between atoms: _176  and  _179
REMARK   72  A    between atoms: _179  and  _180
REMARK   73  A    between atoms: _185  and  _186
REMARK   74  A    between atoms: _188  and  _190
REMARK   75  A    between atoms: _190  and  _191
REMARK   76  A    between atoms: _190  and  _193
REMARK   77  A    between atoms: _193  and  _194
REMARK   78  A    between atoms: _199  and  _201
REMARK   79  A    between atoms: _201  and  _202
REMARK   80  A    between atoms: _201  and  _204
REMARK   81  A    between atoms: _207  and  _209
REMARK   82  A    between atoms: _209  and  _210
REMARK   83  A    between atoms: _213  and  _215
REMARK   84  A    between atoms: _215  and  _216
REMARK   85  A    between atoms: _215  and  _218
REMARK   86  A    between atoms: _218  and  _219
REMARK   87  A    between atoms: _222  and  _224
REMARK   88  A    between atoms: _224  and  _225
REMARK   89  A    between atoms: _224  and  _227
REMARK   90  A    between atoms: _227  and  _228
REMARK   91  A    between atoms: _231  and  _233
REMARK   92  A    between atoms: _233  and  _234
REMARK   93  A    between atoms: _233  and  _236
REMARK   94  A    between atoms: _236  and  _237
REMARK   95  A    between atoms: _240  and  _242
REMARK   96  A    between atoms: _242  and  _243
REMARK   97  A    between atoms: _242  and  _245
REMARK   98  A    between atoms: _245  and  _246
REMARK   99  A    between atoms: _251  and  _252
REMARK  100  A    between atoms: _254  and  _256
REMARK  101  A    between atoms: _256  and  _257
REMARK  102  A    between atoms: _260  and  _262
REMARK  103  A    between atoms: _262  and  _263
REMARK  104  A    between atoms: _262  and  _265
REMARK  105  A    between atoms: _265  and  _266
REMARK  106  A    between atoms: _266  and  _267
REMARK  107  A    between atoms: _270  and  _272
REMARK  108  A    between atoms: _272  and  _273
REMARK  109  A    between atoms: _272  and  _275
REMARK  110  A    between atoms: _275  and  _276
REMARK  111  A    between atoms: _281  and  _283
REMARK  112  A    between atoms: _283  and  _284
REMARK  113  A    between atoms: _283  and  _286
REMARK  114  A    between atoms: _286  and  _287
REMARK  115  A    between atoms: _293  and  _295
REMARK  116  A    between atoms: _295  and  _296
REMARK  117  A    between atoms: _298  and  _300
REMARK  118  A    between atoms: _300  and  _301
REMARK  119  A    between atoms: _300  and  _303
REMARK  120  A    between atoms: _303  and  _304
REMARK  121  A    between atoms: _309  and  _310
REMARK  122  A    between atoms: _312  and  _314
REMARK  123  A    between atoms: _314  and  _315
REMARK  124  A    between atoms: _314  and  _317
REMARK  125  A    between atoms: _317  and  _318
REMARK  126  A    between atoms: _321  and  _323
REMARK  127  A    between atoms: _323  and  _324
REMARK  128  A    between atoms: _323  and  _326
REMARK  129  A    between atoms: _326  and  _327
REMARK  130  A    between atoms: _332  and  _334
REMARK  131  A    between atoms: _334  and  _335
REMARK  132  A    between atoms: _334  and  _337
REMARK  133  A    between atoms: _337  and  _338
REMARK  134  A    between atoms: _343  and  _344
REMARK  135  A    between atoms: _346  and  _348
REMARK  136  A    between atoms: _348  and  _349
REMARK  137  A    between atoms: _348  and  _351
REMARK  138  A    between atoms: _351  and  _352
REMARK  139  A    between atoms: _355  and  _357
REMARK  140  A    between atoms: _357  and  _358
REMARK                            x       y       z     vdW  Elec       q    Type
REMARK                         _______ _______ _______ _____ _____    ______ ____
ROOT
ATOM      1  O   HOH     1      62.586  20.461  37.186  0.00  0.00    +0.000 OA
ENDROOT
TORSDOF 0
REMARK  Name = ../refined-set-2016/4d1j/4d1j_pocket.pdb
REMARK  140 active torsions:
REMARK  status: ('A' for Active; 'I' for Inactive)
REMARK    1  A    between atoms: _1  and  _3
REMARK    2  A    between atoms: _3  and  _4
REMARK    3  A    between atoms: _3  and  _6
REMARK    4  A    between atoms: _6  and  _7
REMARK    5  A    between atoms: _7  and  _8
REMARK    6  A    between atoms: _13  and  _15
REMARK    7  A    between atoms: _15  and  _16
REMARK    8  A    between atoms: _15  and  _18
REMARK    9  A    between atoms: _18  and  _19
REMARK   10  A    between atoms: _22  and  _24
REMARK   11  A    between atoms: _24  and  _25
REMARK   12  A    between atoms: _24  and  _27
REMARK   13  A    between atoms: _27  and  _28
REMARK   14  A    between atoms: _33  and  _35
REMARK   15  A    between atoms: _35  and  _36
REMARK   16  A    between atoms: _35  and  _38
REMARK   17  A    between atoms: _38  and  _39
REMARK   18  A    between atoms: _45  and  _46
REMARK   19  A    between atoms: _51  and  _53
REMARK   20  A    between atoms: _53  and  _54
REMARK   21  A    between atoms: _53  and  _56
REMARK   22  A    between atoms: _56  and  _57
REMARK   23  A    between atoms: _60  and  _62
REMARK   24  A    between atoms: _62  and  _63
REMARK   25  A    between atoms: _62  and  _65
REMARK   26  A    between atoms: _65  and  _66
REMARK   27  A    between atoms: _72  and  _74
REMARK   28  A    between atoms: _74  and  _75
REMARK   29  A    between atoms: _74  and  _77
REMARK   30  A    between atoms: _77  and  _78
REMARK   31  A    between atoms: _78  and  _79
REMARK   32  A    between atoms: _79  and  _80
REMARK   33  A    between atoms: _80  and  _81
REMARK   34  A    between atoms: _85  and  _87
REMARK   35  A    between atoms: _87  and  _88
REMARK   36  A    between atoms: _87  and  _90
REMARK   37  A    between atoms: _90  and  _91
REMARK   38  A    between atoms: _96  and  _98
REMARK   39  A    between atoms: _98  and  _99
REMARK   40  A    between atoms: _98  and  _101
REMARK   41  A    between atoms: _101  and  _102
REMARK   42  A    between atoms: _107  and  _109
REMARK   43  A    between atoms: _109  and  _110
REMARK   44  A    between atoms: _109  and  _112
REMARK   45  A    between atoms: _112  and  _113
REMARK   46  A    between atoms: _118  and  _119
REMARK   47  A    between atoms: _121  and  _123
REMARK   48  A    between atoms: _123  and  _124
REMARK   49  A    between atoms: _123  and  _126
REMARK   50  A    between atoms: _126  and  _127
REMARK   51  A    between atoms: _127  and  _128
REMARK   52  A    between atoms: _133  and  _135
REMARK   53  A    between atoms: _135  and  _136
REMARK   54  A    between atoms: _135  and  _138
REMARK   55  A    between atoms: _138  and  _139
REMARK   56  A    between atoms: _139  and  _140
REMARK   57  A    between atoms: _145  and  _147
REMARK   58  A    between atoms: _147  and  _148
REMARK   59  A    between atoms: _147  and  _150
REMARK   60  A    between atoms: _150  and  _151
REMARK   61  A    between atoms: _156  and  _158
REMARK   62  A    between atoms: _158  and  _159
REMARK   63  A    between atoms: _158  and  _161
REMARK   64  A    between atoms: _161  and  _162
REMARK   65  A    between atoms: _162  and  _163
REMARK   66  A    between atoms: _166  and  _168
REMARK   67  A    between atoms: _168  and  _169
REMARK   68  A    between atoms: _168  and  _171
REMARK   69  A    between atoms: _174  and  _176
REMARK   70  A    between atoms: _176  and  _177
REMARK   71  A    between atoms: _176  and  _179
REMARK   72  A    between atoms: _179  and  _180
REMARK   73  A    between atoms: _185  and  _186
REMARK   74  A    between atoms: _188  and  _190
REMARK   75  A    between atoms: _190  and  _191
REMARK   76  A    between atoms: _190  and  _193
REMARK   77  A    between atoms: _193  and  _194
REMARK   78  A    between atoms: _199  and  _201
REMARK   79  A    between atoms: _201  and  _202
REMARK   80  A    between atoms: _201  and  _204
REMARK   81  A    between atoms: _207  and  _209
REMARK   82  A    between atoms: _209  and  _210
REMARK   83  A    between atoms: _213  and  _215
REMARK   84  A    between atoms: _215  and  _216
REMARK   85  A    between atoms: _215  and  _218
REMARK   86  A    between atoms: _218  and  _219
REMARK   87  A    between atoms: _222  and  _224
REMARK   88  A    between atoms: _224  and  _225
REMARK   89  A    between atoms: _224  and  _227
REMARK   90  A    between atoms: _227  and  _228
REMARK   91  A    between atoms: _231  and  _233
REMARK   92  A    between atoms: _233  and  _234
REMARK   93  A    between atoms: _233  and  _236
REMARK   94  A    between atoms: _236  and  _237
REMARK   95  A    between atoms: _240  and  _242
REMARK   96  A    between atoms: _242  and  _243
REMARK   97  A    between atoms: _242  and  _245
REMARK   98  A    between atoms: _245  and  _246
REMARK   99  A    between atoms: _251  and  _252
REMARK  100  A    between atoms: _254  and  _256
REMARK  101  A    between atoms: _256  and  _257
REMARK  102  A    between atoms: _260  and  _262
REMARK  103  A    between atoms: _262  and  _263
REMARK  104  A    between atoms: _262  and  _265
REMARK  105  A    between atoms: _265  and  _266
REMARK  106  A    between atoms: _266  and  _267
REMARK  107  A    between atoms: _270  and  _272
REMARK  108  A    between atoms: _272  and  _273
REMARK  109  A    between atoms: _272  and  _275
REMARK  110  A    between atoms: _275  and  _276
REMARK  111  A    between atoms: _281  and  _283
REMARK  112  A    between atoms: _283  and  _284
REMARK  113  A    between atoms: _283  and  _286
REMARK  114  A    between atoms: _286  and  _287
REMARK  115  A    between atoms: _293  and  _295
REMARK  116  A    between atoms: _295  and  _296
REMARK  117  A    between atoms: _298  and  _300
REMARK  118  A    between atoms: _300  and  _301
REMARK  119  A    between atoms: _300  and  _303
REMARK  120  A    between atoms: _303  and  _304
REMARK  121  A    between atoms: _309  and  _310
REMARK  122  A    between atoms: _312  and  _314
REMARK  123  A    between atoms: _314  and  _315
REMARK  124  A    between atoms: _314  and  _317
REMARK  125  A    between atoms: _317  and  _318
REMARK  126  A    between atoms: _321  and  _323
REMARK  127  A    between atoms: _323  and  _324
REMARK  128  A    between atoms: _323  and  _326
REMARK  129  A    between atoms: _326  and  _327
REMARK  130  A    between atoms: _332  and  _334
REMARK  131  A    between atoms: _334  and  _335
REMARK  132  A    between atoms: _334  and  _337
REMARK  133  A    between atoms: _337  and  _338
REMARK  134  A    between atoms: _343  and  _344
REMARK  135  A    between atoms: _346  and  _348
REMARK  136  A    between atoms: _348  and  _349
REMARK  137  A    between atoms: _348  and  _351
REMARK  138  A    between atoms: _351  and  _352
REMARK  139  A    between atoms: _355  and  _357
REMARK  140  A    between atoms: _357  and  _358
REMARK                            x       y       z     vdW  Elec       q    Type
REMARK                         _______ _______ _______ _____ _____    ______ ____
ROOT
ATOM      1  O   HOH     1      62.411  23.170  37.272  0.00  0.00    +0.000 OA
ENDROOT
TORSDOF 0
REMARK  Name = ../refined-set-2016/4d1j/4d1j_pocket.pdb
REMARK  140 active torsions:
REMARK  status: ('A' for Active; 'I' for Inactive)
REMARK    1  A    between atoms: _1  and  _3
REMARK    2  A    between atoms: _3  and  _4
REMARK    3  A    between atoms: _3  and  _6
REMARK    4  A    between atoms: _6  and  _7
REMARK    5  A    between atoms: _7  and  _8
REMARK    6  A    between atoms: _13  and  _15
REMARK    7  A    between atoms: _15  and  _16
REMARK    8  A    between atoms: _15  and  _18
REMARK    9  A    between atoms: _18  and  _19
REMARK   10  A    between atoms: _22  and  _24
REMARK   11  A    between atoms: _24  and  _25
REMARK   12  A    between atoms: _24  and  _27
REMARK   13  A    between atoms: _27  and  _28
REMARK   14  A    between atoms: _33  and  _35
REMARK   15  A    between atoms: _35  and  _36
REMARK   16  A    between atoms: _35  and  _38
REMARK   17  A    between atoms: _38  and  _39
REMARK   18  A    between atoms: _45  and  _46
REMARK   19  A    between atoms: _51  and  _53
REMARK   20  A    between atoms: _53  and  _54
REMARK   21  A    between atoms: _53  and  _56
REMARK   22  A    between atoms: _56  and  _57
REMARK   23  A    between atoms: _60  and  _62
REMARK   24  A    between atoms: _62  and  _63
REMARK   25  A    between atoms: _62  and  _65
REMARK   26  A    between atoms: _65  and  _66
REMARK   27  A    between atoms: _72  and  _74
REMARK   28  A    between atoms: _74  and  _75
REMARK   29  A    between atoms: _74  and  _77
REMARK   30  A    between atoms: _77  and  _78
REMARK   31  A    between atoms: _78  and  _79
REMARK   32  A    between atoms: _79  and  _80
REMARK   33  A    between atoms: _80  and  _81
REMARK   34  A    between atoms: _85  and  _87
REMARK   35  A    between atoms: _87  and  _88
REMARK   36  A    between atoms: _87  and  _90
REMARK   37  A    between atoms: _90  and  _91
REMARK   38  A    between atoms: _96  and  _98
REMARK   39  A    between atoms: _98  and  _99
REMARK   40  A    between atoms: _98  and  _101
REMARK   41  A    between atoms: _101  and  _102
REMARK   42  A    between atoms: _107  and  _109
REMARK   43  A    between atoms: _109  and  _110
REMARK   44  A    between atoms: _109  and  _112
REMARK   45  A    between atoms: _112  and  _113
REMARK   46  A    between atoms: _118  and  _119
REMARK   47  A    between atoms: _121  and  _123
REMARK   48  A    between atoms: _123  and  _124
REMARK   49  A    between atoms: _123  and  _126
REMARK   50  A    between atoms: _126  and  _127
REMARK   51  A    between atoms: _127  and  _128
REMARK   52  A    between atoms: _133  and  _135
REMARK   53  A    between atoms: _135  and  _136
REMARK   54  A    between atoms: _135  and  _138
REMARK   55  A    between atoms: _138  and  _139
REMARK   56  A    between atoms: _139  and  _140
REMARK   57  A    between atoms: _145  and  _147
REMARK   58  A    between atoms: _147  and  _148
REMARK   59  A    between atoms: _147  and  _150
REMARK   60  A    between atoms: _150  and  _151
REMARK   61  A    between atoms: _156  and  _158
REMARK   62  A    between atoms: _158  and  _159
REMARK   63  A    between atoms: _158  and  _161
REMARK   64  A    between atoms: _161  and  _162
REMARK   65  A    between atoms: _162  and  _163
REMARK   66  A    between atoms: _166  and  _168
REMARK   67  A    between atoms: _168  and  _169
REMARK   68  A    between atoms: _168  and  _171
REMARK   69  A    between atoms: _174  and  _176
REMARK   70  A    between atoms: _176  and  _177
REMARK   71  A    between atoms: _176  and  _179
REMARK   72  A    between atoms: _179  and  _180
REMARK   73  A    between atoms: _185  and  _186
REMARK   74  A    between atoms: _188  and  _190
REMARK   75  A    between atoms: _190  and  _191
REMARK   76  A    between atoms: _190  and  _193
REMARK   77  A    between atoms: _193  and  _194
REMARK   78  A    between atoms: _199  and  _201
REMARK   79  A    between atoms: _201  and  _202
REMARK   80  A    between atoms: _201  and  _204
REMARK   81  A    between atoms: _207  and  _209
REMARK   82  A    between atoms: _209  and  _210
REMARK   83  A    between atoms: _213  and  _215
REMARK   84  A    between atoms: _215  and  _216
REMARK   85  A    between atoms: _215  and  _218
REMARK   86  A    between atoms: _218  and  _219
REMARK   87  A    between atoms: _222  and  _224
REMARK   88  A    between atoms: _224  and  _225
REMARK   89  A    between atoms: _224  and  _227
REMARK   90  A    between atoms: _227  and  _228
REMARK   91  A    between atoms: _231  and  _233
REMARK   92  A    between atoms: _233  and  _234
REMARK   93  A    between atoms: _233  and  _236
REMARK   94  A    between atoms: _236  and  _237
REMARK   95  A    between atoms: _240  and  _242
REMARK   96  A    between atoms: _242  and  _243
REMARK   97  A    between atoms: _242  and  _245
REMARK   98  A    between atoms: _245  and  _246
REMARK   99  A    between atoms: _251  and  _252
REMARK  100  A    between atoms: _254  and  _256
REMARK  101  A    between atoms: _256  and  _257
REMARK  102  A    between atoms: _260  and  _262
REMARK  103  A    between atoms: _262  and  _263
REMARK  104  A    between atoms: _262  and  _265
REMARK  105  A    between atoms: _265  and  _266
REMARK  106  A    between atoms: _266  and  _267
REMARK  107  A    between atoms: _270  and  _272
REMARK  108  A    between atoms: _272  and  _273
REMARK  109  A    between atoms: _272  and  _275
REMARK  110  A    between atoms: _275  and  _276
REMARK  111  A    between atoms: _281  and  _283
REMARK  112  A    between atoms: _283  and  _284
REMARK  113  A    between atoms: _283  and  _286
REMARK  114  A    between atoms: _286  and  _287
REMARK  115  A    between atoms: _293  and  _295
REMARK  116  A    between atoms: _295  and  _296
REMARK  117  A    between atoms: _298  and  _300
REMARK  118  A    between atoms: _300  and  _301
REMARK  119  A    between atoms: _300  and  _303
REMARK  120  A    between atoms: _303  and  _304
REMARK  121  A    between atoms: _309  and  _310
REMARK  122  A    between atoms: _312  and  _314
REMARK  123  A    between atoms: _314  and  _315
REMARK  124  A    between atoms: _314  and  _317
REMARK  125  A    between atoms: _317  and  _318
REMARK  126  A    between atoms: _321  and  _323
REMARK  127  A    between atoms: _323  and  _324
REMARK  128  A    between atoms: _323  and  _326
REMARK  129  A    between atoms: _326  and  _327
REMARK  130  A    between atoms: _332  and  _334
REMARK  131  A    between atoms: _334  and  _335
REMARK  132  A    between atoms: _334  and  _337
REMARK  133  A    between atoms: _337  and  _338
REMARK  134  A    between atoms: _343  and  _344
REMARK  135  A    between atoms: _346  and  _348
REMARK  136  A    between atoms: _348  and  _349
REMARK  137  A    between atoms: _348  and  _351
REMARK  138  A    between atoms: _351  and  _352
REMARK  139  A    between atoms: _355  and  _357
REMARK  140  A    between atoms: _357  and  _358
REMARK                            x       y       z     vdW  Elec       q    Type
REMARK                         _______ _______ _______ _____ _____    ______ ____
ROOT
ATOM      1  O   HOH     1      64.923  20.119  36.878  0.00  0.00    +0.000 OA
ENDROOT
TORSDOF 0
REMARK  Name = ../refined-set-2016/4d1j/4d1j_pocket.pdb
REMARK  140 active torsions:
REMARK  status: ('A' for Active; 'I' for Inactive)
REMARK    1  A    between atoms: _1  and  _3
REMARK    2  A    between atoms: _3  and  _4
REMARK    3  A    between atoms: _3  and  _6
REMARK    4  A    between atoms: _6  and  _7
REMARK    5  A    between atoms: _7  and  _8
REMARK    6  A    between atoms: _13  and  _15
REMARK    7  A    between atoms: _15  and  _16
REMARK    8  A    between atoms: _15  and  _18
REMARK    9  A    between atoms: _18  and  _19
REMARK   10  A    between atoms: _22  and  _24
REMARK   11  A    between atoms: _24  and  _25
REMARK   12  A    between atoms: _24  and  _27
REMARK   13  A    between atoms: _27  and  _28
REMARK   14  A    between atoms: _33  and  _35
REMARK   15  A    between atoms: _35  and  _36
REMARK   16  A    between atoms: _35  and  _38
REMARK   17  A    between atoms: _38  and  _39
REMARK   18  A    between atoms: _45  and  _46
REMARK   19  A    between atoms: _51  and  _53
REMARK   20  A    between atoms: _53  and  _54
REMARK   21  A    between atoms: _53  and  _56
REMARK   22  A    between atoms: _56  and  _57
REMARK   23  A    between atoms: _60  and  _62
REMARK   24  A    between atoms: _62  and  _63
REMARK   25  A    between atoms: _62  and  _65
REMARK   26  A    between atoms: _65  and  _66
REMARK   27  A    between atoms: _72  and  _74
REMARK   28  A    between atoms: _74  and  _75
REMARK   29  A    between atoms: _74  and  _77
REMARK   30  A    between atoms: _77  and  _78
REMARK   31  A    between atoms: _78  and  _79
REMARK   32  A    between atoms: _79  and  _80
REMARK   33  A    between atoms: _80  and  _81
REMARK   34  A    between atoms: _85  and  _87
REMARK   35  A    between atoms: _87  and  _88
REMARK   36  A    between atoms: _87  and  _90
REMARK   37  A    between atoms: _90  and  _91
REMARK   38  A    between atoms: _96  and  _98
REMARK   39  A    between atoms: _98  and  _99
REMARK   40  A    between atoms: _98  and  _101
REMARK   41  A    between atoms: _101  and  _102
REMARK   42  A    between atoms: _107  and  _109
REMARK   43  A    between atoms: _109  and  _110
REMARK   44  A    between atoms: _109  and  _112
REMARK   45  A    between atoms: _112  and  _113
REMARK   46  A    between atoms: _118  and  _119
REMARK   47  A    between atoms: _121  and  _123
REMARK   48  A    between atoms: _123  and  _124
REMARK   49  A    between atoms: _123  and  _126
REMARK   50  A    between atoms: _126  and  _127
REMARK   51  A    between atoms: _127  and  _128
REMARK   52  A    between atoms: _133  and  _135
REMARK   53  A    between atoms: _135  and  _136
REMARK   54  A    between atoms: _135  and  _138
REMARK   55  A    between atoms: _138  and  _139
REMARK   56  A    between atoms: _139  and  _140
REMARK   57  A    between atoms: _145  and  _147
REMARK   58  A    between atoms: _147  and  _148
REMARK   59  A    between atoms: _147  and  _150
REMARK   60  A    between atoms: _150  and  _151
REMARK   61  A    between atoms: _156  and  _158
REMARK   62  A    between atoms: _158  and  _159
REMARK   63  A    between atoms: _158  and  _161
REMARK   64  A    between atoms: _161  and  _162
REMARK   65  A    between atoms: _162  and  _163
REMARK   66  A    between atoms: _166  and  _168
REMARK   67  A    between atoms: _168  and  _169
REMARK   68  A    between atoms: _168  and  _171
REMARK   69  A    between atoms: _174  and  _176
REMARK   70  A    between atoms: _176  and  _177
REMARK   71  A    between atoms: _176  and  _179
REMARK   72  A    between atoms: _179  and  _180
REMARK   73  A    between atoms: _185  and  _186
REMARK   74  A    between atoms: _188  and  _190
REMARK   75  A    between atoms: _190  and  _191
REMARK   76  A    between atoms: _190  and  _193
REMARK   77  A    between atoms: _193  and  _194
REMARK   78  A    between atoms: _199  and  _201
REMARK   79  A    between atoms: _201  and  _202
REMARK   80  A    between atoms: _201  and  _204
REMARK   81  A    between atoms: _207  and  _209
REMARK   82  A    between atoms: _209  and  _210
REMARK   83  A    between atoms: _213  and  _215
REMARK   84  A    between atoms: _215  and  _216
REMARK   85  A    between atoms: _215  and  _218
REMARK   86  A    between atoms: _218  and  _219
REMARK   87  A    between atoms: _222  and  _224
REMARK   88  A    between atoms: _224  and  _225
REMARK   89  A    between atoms: _224  and  _227
REMARK   90  A    between atoms: _227  and  _228
REMARK   91  A    between atoms: _231  and  _233
REMARK   92  A    between atoms: _233  and  _234
REMARK   93  A    between atoms: _233  and  _236
REMARK   94  A    between atoms: _236  and  _237
REMARK   95  A    between atoms: _240  and  _242
REMARK   96  A    between atoms: _242  and  _243
REMARK   97  A    between atoms: _242  and  _245
REMARK   98  A    between atoms: _245  and  _246
REMARK   99  A    between atoms: _251  and  _252
REMARK  100  A    between atoms: _254  and  _256
REMARK  101  A    between atoms: _256  and  _257
REMARK  102  A    between atoms: _260  and  _262
REMARK  103  A    between atoms: _262  and  _263
REMARK  104  A    between atoms: _262  and  _265
REMARK  105  A    between atoms: _265  and  _266
REMARK  106  A    between atoms: _266  and  _267
REMARK  107  A    between atoms: _270  and  _272
REMARK  108  A    between atoms: _272  and  _273
REMARK  109  A    between atoms: _272  and  _275
REMARK  110  A    between atoms: _275  and  _276
REMARK  111  A    between atoms: _281  and  _283
REMARK  112  A    between atoms: _283  and  _284
REMARK  113  A    between atoms: _283  and  _286
REMARK  114  A    between atoms: _286  and  _287
REMARK  115  A    between atoms: _293  and  _295
REMARK  116  A    between atoms: _295  and  _296
REMARK  117  A    between atoms: _298  and  _300
REMARK  118  A    between atoms: _300  and  _301
REMARK  119  A    between atoms: _300  and  _303
REMARK  120  A    between atoms: _303  and  _304
REMARK  121  A    between atoms: _309  and  _310
REMARK  122  A    between atoms: _312  and  _314
REMARK  123  A    between atoms: _314  and  _315
REMARK  124  A    between atoms: _314  and  _317
REMARK  125  A    between atoms: _317  and  _318
REMARK  126  A    between atoms: _321  and  _323
REMARK  127  A    between atoms: _323  and  _324
REMARK  128  A    between atoms: _323  and  _326
REMARK  129  A    between atoms: _326  and  _327
REMARK  130  A    between atoms: _332  and  _334
REMARK  131  A    between atoms: _334  and  _335
REMARK  132  A    between atoms: _334  and  _337
REMARK  133  A    between atoms: _337  and  _338
REMARK  134  A    between atoms: _343  and  _344
REMARK  135  A    between atoms: _346  and  _348
REMARK  136  A    between atoms: _348  and  _349
REMARK  137  A    between atoms: _348  and  _351
REMARK  138  A    between atoms: _351  and  _352
REMARK  139  A    between atoms: _355  and  _357
REMARK  140  A    between atoms: _357  and  _358
REMARK                            x       y       z     vdW  Elec       q    Type
REMARK                         _______ _______ _______ _____ _____    ______ ____
ROOT
ATOM      1  O   HOH     1      66.219  23.155  36.955  0.00  0.00    +0.000 OA
ENDROOT
TORSDOF 0
REMARK  Name = ../refined-set-2016/4d1j/4d1j_pocket.pdb
REMARK  140 active torsions:
REMARK  status: ('A' for Active; 'I' for Inactive)
REMARK    1  A    between atoms: _1  and  _3
REMARK    2  A    between atoms: _3  and  _4
REMARK    3  A    between atoms: _3  and  _6
REMARK    4  A    between atoms: _6  and  _7
REMARK    5  A    between atoms: _7  and  _8
REMARK    6  A    between atoms: _13  and  _15
REMARK    7  A    between atoms: _15  and  _16
REMARK    8  A    between atoms: _15  and  _18
REMARK    9  A    between atoms: _18  and  _19
REMARK   10  A    between atoms: _22  and  _24
REMARK   11  A    between atoms: _24  and  _25
REMARK   12  A    between atoms: _24  and  _27
REMARK   13  A    between atoms: _27  and  _28
REMARK   14  A    between atoms: _33  and  _35
REMARK   15  A    between atoms: _35  and  _36
REMARK   16  A    between atoms: _35  and  _38
REMARK   17  A    between atoms: _38  and  _39
REMARK   18  A    between atoms: _45  and  _46
REMARK   19  A    between atoms: _51  and  _53
REMARK   20  A    between atoms: _53  and  _54
REMARK   21  A    between atoms: _53  and  _56
REMARK   22  A    between atoms: _56  and  _57
REMARK   23  A    between atoms: _60  and  _62
REMARK   24  A    between atoms: _62  and  _63
REMARK   25  A    between atoms: _62  and  _65
REMARK   26  A    between atoms: _65  and  _66
REMARK   27  A    between atoms: _72  and  _74
REMARK   28  A    between atoms: _74  and  _75
REMARK   29  A    between atoms: _74  and  _77
REMARK   30  A    between atoms: _77  and  _78
REMARK   31  A    between atoms: _78  and  _79
REMARK   32  A    between atoms: _79  and  _80
REMARK   33  A    between atoms: _80  and  _81
REMARK   34  A    between atoms: _85  and  _87
REMARK   35  A    between atoms: _87  and  _88
REMARK   36  A    between atoms: _87  and  _90
REMARK   37  A    between atoms: _90  and  _91
REMARK   38  A    between atoms: _96  and  _98
REMARK   39  A    between atoms: _98  and  _99
REMARK   40  A    between atoms: _98  and  _101
REMARK   41  A    between atoms: _101  and  _102
REMARK   42  A    between atoms: _107  and  _109
REMARK   43  A    between atoms: _109  and  _110
REMARK   44  A    between atoms: _109  and  _112
REMARK   45  A    between atoms: _112  and  _113
REMARK   46  A    between atoms: _118  and  _119
REMARK   47  A    between atoms: _121  and  _123
REMARK   48  A    between atoms: _123  and  _124
REMARK   49  A    between atoms: _123  and  _126
REMARK   50  A    between atoms: _126  and  _127
REMARK   51  A    between atoms: _127  and  _128
REMARK   52  A    between atoms: _133  and  _135
REMARK   53  A    between atoms: _135  and  _136
REMARK   54  A    between atoms: _135  and  _138
REMARK   55  A    between atoms: _138  and  _139
REMARK   56  A    between atoms: _139  and  _140
REMARK   57  A    between atoms: _145  and  _147
REMARK   58  A    between atoms: _147  and  _148
REMARK   59  A    between atoms: _147  and  _150
REMARK   60  A    between atoms: _150  and  _151
REMARK   61  A    between atoms: _156  and  _158
REMARK   62  A    between atoms: _158  and  _159
REMARK   63  A    between atoms: _158  and  _161
REMARK   64  A    between atoms: _161  and  _162
REMARK   65  A    between atoms: _162  and  _163
REMARK   66  A    between atoms: _166  and  _168
REMARK   67  A    between atoms: _168  and  _169
REMARK   68  A    between atoms: _168  and  _171
REMARK   69  A    between atoms: _174  and  _176
REMARK   70  A    between atoms: _176  and  _177
REMARK   71  A    between atoms: _176  and  _179
REMARK   72  A    between atoms: _179  and  _180
REMARK   73  A    between atoms: _185  and  _186
REMARK   74  A    between atoms: _188  and  _190
REMARK   75  A    between atoms: _190  and  _191
REMARK   76  A    between atoms: _190  and  _193
REMARK   77  A    between atoms: _193  and  _194
REMARK   78  A    between atoms: _199  and  _201
REMARK   79  A    between atoms: _201  and  _202
REMARK   80  A    between atoms: _201  and  _204
REMARK   81  A    between atoms: _207  and  _209
REMARK   82  A    between atoms: _209  and  _210
REMARK   83  A    between atoms: _213  and  _215
REMARK   84  A    between atoms: _215  and  _216
REMARK   85  A    between atoms: _215  and  _218
REMARK   86  A    between atoms: _218  and  _219
REMARK   87  A    between atoms: _222  and  _224
REMARK   88  A    between atoms: _224  and  _225
REMARK   89  A    between atoms: _224  and  _227
REMARK   90  A    between atoms: _227  and  _228
REMARK   91  A    between atoms: _231  and  _233
REMARK   92  A    between atoms: _233  and  _234
REMARK   93  A    between atoms: _233  and  _236
REMARK   94  A    between atoms: _236  and  _237
REMARK   95  A    between atoms: _240  and  _242
REMARK   96  A    between atoms: _242  and  _243
REMARK   97  A    between atoms: _242  and  _245
REMARK   98  A    between atoms: _245  and  _246
REMARK   99  A    between atoms: _251  and  _252
REMARK  100  A    between atoms: _254  and  _256
REMARK  101  A    between atoms: _256  and  _257
REMARK  102  A    between atoms: _260  and  _262
REMARK  103  A    between atoms: _262  and  _263
REMARK  104  A    between atoms: _262  and  _265
REMARK  105  A    between atoms: _265  and  _266
REMARK  106  A    between atoms: _266  and  _267
REMARK  107  A    between atoms: _270  and  _272
REMARK  108  A    between atoms: _272  and  _273
REMARK  109  A    between atoms: _272  and  _275
REMARK  110  A    between atoms: _275  and  _276
REMARK  111  A    between atoms: _281  and  _283
REMARK  112  A    between atoms: _283  and  _284
REMARK  113  A    between atoms: _283  and  _286
REMARK  114  A    between atoms: _286  and  _287
REMARK  115  A    between atoms: _293  and  _295
REMARK  116  A    between atoms: _295  and  _296
REMARK  117  A    between atoms: _298  and  _300
REMARK  118  A    between atoms: _300  and  _301
REMARK  119  A    between atoms: _300  and  _303
REMARK  120  A    between atoms: _303  and  _304
REMARK  121  A    between atoms: _309  and  _310
REMARK  122  A    between atoms: _312  and  _314
REMARK  123  A    between atoms: _314  and  _315
REMARK  124  A    between atoms: _314  and  _317
REMARK  125  A    between atoms: _317  and  _318
REMARK  126  A    between atoms: _321  and  _323
REMARK  127  A    between atoms: _323  and  _324
REMARK  128  A    between atoms: _323  and  _326
REMARK  129  A    between atoms: _326  and  _327
REMARK  130  A    between atoms: _332  and  _334
REMARK  131  A    between atoms: _334  and  _335
REMARK  132  A    between atoms: _334  and  _337
REMARK  133  A    between atoms: _337  and  _338
REMARK  134  A    between atoms: _343  and  _344
REMARK  135  A    between atoms: _346  and  _348
REMARK  136  A    between atoms: _348  and  _349
REMARK  137  A    between atoms: _348  and  _351
REMARK  138  A    between atoms: _351  and  _352
REMARK  139  A    between atoms: _355  and  _357
REMARK  140  A    between atoms: _357  and  _358
REMARK                            x       y       z     vdW  Elec       q    Type
REMARK                         _______ _______ _______ _____ _____    ______ ____
ROOT
ATOM      1  O   HOH     1      66.516  27.185  36.034  0.00  0.00    +0.000 OA
ENDROOT
TORSDOF 0
REMARK  Name = ../refined-set-2016/4d1j/4d1j_pocket.pdb
REMARK  140 active torsions:
REMARK  status: ('A' for Active; 'I' for Inactive)
REMARK    1  A    between atoms: _1  and  _3
REMARK    2  A    between atoms: _3  and  _4
REMARK    3  A    between atoms: _3  and  _6
REMARK    4  A    between atoms: _6  and  _7
REMARK    5  A    between atoms: _7  and  _8
REMARK    6  A    between atoms: _13  and  _15
REMARK    7  A    between atoms: _15  and  _16
REMARK    8  A    between atoms: _15  and  _18
REMARK    9  A    between atoms: _18  and  _19
REMARK   10  A    between atoms: _22  and  _24
REMARK   11  A    between atoms: _24  and  _25
REMARK   12  A    between atoms: _24  and  _27
REMARK   13  A    between atoms: _27  and  _28
REMARK   14  A    between atoms: _33  and  _35
REMARK   15  A    between atoms: _35  and  _36
REMARK   16  A    between atoms: _35  and  _38
REMARK   17  A    between atoms: _38  and  _39
REMARK   18  A    between atoms: _45  and  _46
REMARK   19  A    between atoms: _51  and  _53
REMARK   20  A    between atoms: _53  and  _54
REMARK   21  A    between atoms: _53  and  _56
REMARK   22  A    between atoms: _56  and  _57
REMARK   23  A    between atoms: _60  and  _62
REMARK   24  A    between atoms: _62  and  _63
REMARK   25  A    between atoms: _62  and  _65
REMARK   26  A    between atoms: _65  and  _66
REMARK   27  A    between atoms: _72  and  _74
REMARK   28  A    between atoms: _74  and  _75
REMARK   29  A    between atoms: _74  and  _77
REMARK   30  A    between atoms: _77  and  _78
REMARK   31  A    between atoms: _78  and  _79
REMARK   32  A    between atoms: _79  and  _80
REMARK   33  A    between atoms: _80  and  _81
REMARK   34  A    between atoms: _85  and  _87
REMARK   35  A    between atoms: _87  and  _88
REMARK   36  A    between atoms: _87  and  _90
REMARK   37  A    between atoms: _90  and  _91
REMARK   38  A    between atoms: _96  and  _98
REMARK   39  A    between atoms: _98  and  _99
REMARK   40  A    between atoms: _98  and  _101
REMARK   41  A    between atoms: _101  and  _102
REMARK   42  A    between atoms: _107  and  _109
REMARK   43  A    between atoms: _109  and  _110
REMARK   44  A    between atoms: _109  and  _112
REMARK   45  A    between atoms: _112  and  _113
REMARK   46  A    between atoms: _118  and  _119
REMARK   47  A    between atoms: _121  and  _123
REMARK   48  A    between atoms: _123  and  _124
REMARK   49  A    between atoms: _123  and  _126
REMARK   50  A    between atoms: _126  and  _127
REMARK   51  A    between atoms: _127  and  _128
REMARK   52  A    between atoms: _133  and  _135
REMARK   53  A    between atoms: _135  and  _136
REMARK   54  A    between atoms: _135  and  _138
REMARK   55  A    between atoms: _138  and  _139
REMARK   56  A    between atoms: _139  and  _140
REMARK   57  A    between atoms: _145  and  _147
REMARK   58  A    between atoms: _147  and  _148
REMARK   59  A    between atoms: _147  and  _150
REMARK   60  A    between atoms: _150  and  _151
REMARK   61  A    between atoms: _156  and  _158
REMARK   62  A    between atoms: _158  and  _159
REMARK   63  A    between atoms: _158  and  _161
REMARK   64  A    between atoms: _161  and  _162
REMARK   65  A    between atoms: _162  and  _163
REMARK   66  A    between atoms: _166  and  _168
REMARK   67  A    between atoms: _168  and  _169
REMARK   68  A    between atoms: _168  and  _171
REMARK   69  A    between atoms: _174  and  _176
REMARK   70  A    between atoms: _176  and  _177
REMARK   71  A    between atoms: _176  and  _179
REMARK   72  A    between atoms: _179  and  _180
REMARK   73  A    between atoms: _185  and  _186
REMARK   74  A    between atoms: _188  and  _190
REMARK   75  A    between atoms: _190  and  _191
REMARK   76  A    between atoms: _190  and  _193
REMARK   77  A    between atoms: _193  and  _194
REMARK   78  A    between atoms: _199  and  _201
REMARK   79  A    between atoms: _201  and  _202
REMARK   80  A    between atoms: _201  and  _204
REMARK   81  A    between atoms: _207  and  _209
REMARK   82  A    between atoms: _209  and  _210
REMARK   83  A    between atoms: _213  and  _215
REMARK   84  A    between atoms: _215  and  _216
REMARK   85  A    between atoms: _215  and  _218
REMARK   86  A    between atoms: _218  and  _219
REMARK   87  A    between atoms: _222  and  _224
REMARK   88  A    between atoms: _224  and  _225
REMARK   89  A    between atoms: _224  and  _227
REMARK   90  A    between atoms: _227  and  _228
REMARK   91  A    between atoms: _231  and  _233
REMARK   92  A    between atoms: _233  and  _234
REMARK   93  A    between atoms: _233  and  _236
REMARK   94  A    between atoms: _236  and  _237
REMARK   95  A    between atoms: _240  and  _242
REMARK   96  A    between atoms: _242  and  _243
REMARK   97  A    between atoms: _242  and  _245
REMARK   98  A    between atoms: _245  and  _246
REMARK   99  A    between atoms: _251  and  _252
REMARK  100  A    between atoms: _254  and  _256
REMARK  101  A    between atoms: _256  and  _257
REMARK  102  A    between atoms: _260  and  _262
REMARK  103  A    between atoms: _262  and  _263
REMARK  104  A    between atoms: _262  and  _265
REMARK  105  A    between atoms: _265  and  _266
REMARK  106  A    between atoms: _266  and  _267
REMARK  107  A    between atoms: _270  and  _272
REMARK  108  A    between atoms: _272  and  _273
REMARK  109  A    between atoms: _272  and  _275
REMARK  110  A    between atoms: _275  and  _276
REMARK  111  A    between atoms: _281  and  _283
REMARK  112  A    between atoms: _283  and  _284
REMARK  113  A    between atoms: _283  and  _286
REMARK  114  A    between atoms: _286  and  _287
REMARK  115  A    between atoms: _293  and  _295
REMARK  116  A    between atoms: _295  and  _296
REMARK  117  A    between atoms: _298  and  _300
REMARK  118  A    between atoms: _300  and  _301
REMARK  119  A    between atoms: _300  and  _303
REMARK  120  A    between atoms: _303  and  _304
REMARK  121  A    between atoms: _309  and  _310
REMARK  122  A    between atoms: _312  and  _314
REMARK  123  A    between atoms: _314  and  _315
REMARK  124  A    between atoms: _314  and  _317
REMARK  125  A    between atoms: _317  and  _318
REMARK  126  A    between atoms: _321  and  _323
REMARK  127  A    between atoms: _323  and  _324
REMARK  128  A    between atoms: _323  and  _326
REMARK  129  A    between atoms: _326  and  _327
REMARK  130  A    between atoms: _332  and  _334
REMARK  131  A    between atoms: _334  and  _335
REMARK  132  A    between atoms: _334  and  _337
REMARK  133  A    between atoms: _337  and  _338
REMARK  134  A    between atoms: _343  and  _344
REMARK  135  A    between atoms: _346  and  _348
REMARK  136  A    between atoms: _348  and  _349
REMARK  137  A    between atoms: _348  and  _351
REMARK  138  A    between atoms: _351  and  _352
REMARK  139  A    between atoms: _355  and  _357
REMARK  140  A    between atoms: _357  and  _358
REMARK                            x       y       z     vdW  Elec       q    Type
REMARK                         _______ _______ _______ _____ _____    ______ ____
ROOT
ATOM      1  O   HOH     1      66.660  22.027  30.228  0.00  0.00    +0.000 OA
ENDROOT
TORSDOF 0
REMARK  Name = ../refined-set-2016/4d1j/4d1j_pocket.pdb
REMARK  140 active torsions:
REMARK  status: ('A' for Active; 'I' for Inactive)
REMARK    1  A    between atoms: _1  and  _3
REMARK    2  A    between atoms: _3  and  _4
REMARK    3  A    between atoms: _3  and  _6
REMARK    4  A    between atoms: _6  and  _7
REMARK    5  A    between atoms: _7  and  _8
REMARK    6  A    between atoms: _13  and  _15
REMARK    7  A    between atoms: _15  and  _16
REMARK    8  A    between atoms: _15  and  _18
REMARK    9  A    between atoms: _18  and  _19
REMARK   10  A    between atoms: _22  and  _24
REMARK   11  A    between atoms: _24  and  _25
REMARK   12  A    between atoms: _24  and  _27
REMARK   13  A    between atoms: _27  and  _28
REMARK   14  A    between atoms: _33  and  _35
REMARK   15  A    between atoms: _35  and  _36
REMARK   16  A    between atoms: _35  and  _38
REMARK   17  A    between atoms: _38  and  _39
REMARK   18  A    between atoms: _45  and  _46
REMARK   19  A    between atoms: _51  and  _53
REMARK   20  A    between atoms: _53  and  _54
REMARK   21  A    between atoms: _53  and  _56
REMARK   22  A    between atoms: _56  and  _57
REMARK   23  A    between atoms: _60  and  _62
REMARK   24  A    between atoms: _62  and  _63
REMARK   25  A    between atoms: _62  and  _65
REMARK   26  A    between atoms: _65  and  _66
REMARK   27  A    between atoms: _72  and  _74
REMARK   28  A    between atoms: _74  and  _75
REMARK   29  A    between atoms: _74  and  _77
REMARK   30  A    between atoms: _77  and  _78
REMARK   31  A    between atoms: _78  and  _79
REMARK   32  A    between atoms: _79  and  _80
REMARK   33  A    between atoms: _80  and  _81
REMARK   34  A    between atoms: _85  and  _87
REMARK   35  A    between atoms: _87  and  _88
REMARK   36  A    between atoms: _87  and  _90
REMARK   37  A    between atoms: _90  and  _91
REMARK   38  A    between atoms: _96  and  _98
REMARK   39  A    between atoms: _98  and  _99
REMARK   40  A    between atoms: _98  and  _101
REMARK   41  A    between atoms: _101  and  _102
REMARK   42  A    between atoms: _107  and  _109
REMARK   43  A    between atoms: _109  and  _110
REMARK   44  A    between atoms: _109  and  _112
REMARK   45  A    between atoms: _112  and  _113
REMARK   46  A    between atoms: _118  and  _119
REMARK   47  A    between atoms: _121  and  _123
REMARK   48  A    between atoms: _123  and  _124
REMARK   49  A    between atoms: _123  and  _126
REMARK   50  A    between atoms: _126  and  _127
REMARK   51  A    between atoms: _127  and  _128
REMARK   52  A    between atoms: _133  and  _135
REMARK   53  A    between atoms: _135  and  _136
REMARK   54  A    between atoms: _135  and  _138
REMARK   55  A    between atoms: _138  and  _139
REMARK   56  A    between atoms: _139  and  _140
REMARK   57  A    between atoms: _145  and  _147
REMARK   58  A    between atoms: _147  and  _148
REMARK   59  A    between atoms: _147  and  _150
REMARK   60  A    between atoms: _150  and  _151
REMARK   61  A    between atoms: _156  and  _158
REMARK   62  A    between atoms: _158  and  _159
REMARK   63  A    between atoms: _158  and  _161
REMARK   64  A    between atoms: _161  and  _162
REMARK   65  A    between atoms: _162  and  _163
REMARK   66  A    between atoms: _166  and  _168
REMARK   67  A    between atoms: _168  and  _169
REMARK   68  A    between atoms: _168  and  _171
REMARK   69  A    between atoms: _174  and  _176
REMARK   70  A    between atoms: _176  and  _177
REMARK   71  A    between atoms: _176  and  _179
REMARK   72  A    between atoms: _179  and  _180
REMARK   73  A    between atoms: _185  and  _186
REMARK   74  A    between atoms: _188  and  _190
REMARK   75  A    between atoms: _190  and  _191
REMARK   76  A    between atoms: _190  and  _193
REMARK   77  A    between atoms: _193  and  _194
REMARK   78  A    between atoms: _199  and  _201
REMARK   79  A    between atoms: _201  and  _202
REMARK   80  A    between atoms: _201  and  _204
REMARK   81  A    between atoms: _207  and  _209
REMARK   82  A    between atoms: _209  and  _210
REMARK   83  A    between atoms: _213  and  _215
REMARK   84  A    between atoms: _215  and  _216
REMARK   85  A    between atoms: _215  and  _218
REMARK   86  A    between atoms: _218  and  _219
REMARK   87  A    between atoms: _222  and  _224
REMARK   88  A    between atoms: _224  and  _225
REMARK   89  A    between atoms: _224  and  _227
REMARK   90  A    between atoms: _227  and  _228
REMARK   91  A    between atoms: _231  and  _233
REMARK   92  A    between atoms: _233  and  _234
REMARK   93  A    between atoms: _233  and  _236
REMARK   94  A    between atoms: _236  and  _237
REMARK   95  A    between atoms: _240  and  _242
REMARK   96  A    between atoms: _242  and  _243
REMARK   97  A    between atoms: _242  and  _245
REMARK   98  A    between atoms: _245  and  _246
REMARK   99  A    between atoms: _251  and  _252
REMARK  100  A    between atoms: _254  and  _256
REMARK  101  A    between atoms: _256  and  _257
REMARK  102  A    between atoms: _260  and  _262
REMARK  103  A    between atoms: _262  and  _263
REMARK  104  A    between atoms: _262  and  _265
REMARK  105  A    between atoms: _265  and  _266
REMARK  106  A    between atoms: _266  and  _267
REMARK  107  A    between atoms: _270  and  _272
REMARK  108  A    between atoms: _272  and  _273
REMARK  109  A    between atoms: _272  and  _275
REMARK  110  A    between atoms: _275  and  _276
REMARK  111  A    between atoms: _281  and  _283
REMARK  112  A    between atoms: _283  and  _284
REMARK  113  A    between atoms: _283  and  _286
REMARK  114  A    between atoms: _286  and  _287
REMARK  115  A    between atoms: _293  and  _295
REMARK  116  A    between atoms: _295  and  _296
REMARK  117  A    between atoms: _298  and  _300
REMARK  118  A    between atoms: _300  and  _301
REMARK  119  A    between atoms: _300  and  _303
REMARK  120  A    between atoms: _303  and  _304
REMARK  121  A    between atoms: _309  and  _310
REMARK  122  A    between atoms: _312  and  _314
REMARK  123  A    between atoms: _314  and  _315
REMARK  124  A    between atoms: _314  and  _317
REMARK  125  A    between atoms: _317  and  _318
REMARK  126  A    between atoms: _321  and  _323
REMARK  127  A    between atoms: _323  and  _324
REMARK  128  A    between atoms: _323  and  _326
REMARK  129  A    between atoms: _326  and  _327
REMARK  130  A    between atoms: _332  and  _334
REMARK  131  A    between atoms: _334  and  _335
REMARK  132  A    between atoms: _334  and  _337
REMARK  133  A    between atoms: _337  and  _338
REMARK  134  A    between atoms: _343  and  _344
REMARK  135  A    between atoms: _346  and  _348
REMARK  136  A    between atoms: _348  and  _349
REMARK  137  A    between atoms: _348  and  _351
REMARK  138  A    between atoms: _351  and  _352
REMARK  139  A    between atoms: _355  and  _357
REMARK  140  A    between atoms: _357  and  _358
REMARK                            x       y       z     vdW  Elec       q    Type
REMARK                         _______ _______ _______ _____ _____    ______ ____
ROOT
ATOM      1  O   HOH     1      67.143  29.363  31.365  0.00  0.00    +0.000 OA
ENDROOT
TORSDOF 0
REMARK  Name = ../refined-set-2016/4d1j/4d1j_pocket.pdb
REMARK  140 active torsions:
REMARK  status: ('A' for Active; 'I' for Inactive)
REMARK    1  A    between atoms: _1  and  _3
REMARK    2  A    between atoms: _3  and  _4
REMARK    3  A    between atoms: _3  and  _6
REMARK    4  A    between atoms: _6  and  _7
REMARK    5  A    between atoms: _7  and  _8
REMARK    6  A    between atoms: _13  and  _15
REMARK    7  A    between atoms: _15  and  _16
REMARK    8  A    between atoms: _15  and  _18
REMARK    9  A    between atoms: _18  and  _19
REMARK   10  A    between atoms: _22  and  _24
REMARK   11  A    between atoms: _24  and  _25
REMARK   12  A    between atoms: _24  and  _27
REMARK   13  A    between atoms: _27  and  _28
REMARK   14  A    between atoms: _33  and  _35
REMARK   15  A    between atoms: _35  and  _36
REMARK   16  A    between atoms: _35  and  _38
REMARK   17  A    between atoms: _38  and  _39
REMARK   18  A    between atoms: _45  and  _46
REMARK   19  A    between atoms: _51  and  _53
REMARK   20  A    between atoms: _53  and  _54
REMARK   21  A    between atoms: _53  and  _56
REMARK   22  A    between atoms: _56  and  _57
REMARK   23  A    between atoms: _60  and  _62
REMARK   24  A    between atoms: _62  and  _63
REMARK   25  A    between atoms: _62  and  _65
REMARK   26  A    between atoms: _65  and  _66
REMARK   27  A    between atoms: _72  and  _74
REMARK   28  A    between atoms: _74  and  _75
REMARK   29  A    between atoms: _74  and  _77
REMARK   30  A    between atoms: _77  and  _78
REMARK   31  A    between atoms: _78  and  _79
REMARK   32  A    between atoms: _79  and  _80
REMARK   33  A    between atoms: _80  and  _81
REMARK   34  A    between atoms: _85  and  _87
REMARK   35  A    between atoms: _87  and  _88
REMARK   36  A    between atoms: _87  and  _90
REMARK   37  A    between atoms: _90  and  _91
REMARK   38  A    between atoms: _96  and  _98
REMARK   39  A    between atoms: _98  and  _99
REMARK   40  A    between atoms: _98  and  _101
REMARK   41  A    between atoms: _101  and  _102
REMARK   42  A    between atoms: _107  and  _109
REMARK   43  A    between atoms: _109  and  _110
REMARK   44  A    between atoms: _109  and  _112
REMARK   45  A    between atoms: _112  and  _113
REMARK   46  A    between atoms: _118  and  _119
REMARK   47  A    between atoms: _121  and  _123
REMARK   48  A    between atoms: _123  and  _124
REMARK   49  A    between atoms: _123  and  _126
REMARK   50  A    between atoms: _126  and  _127
REMARK   51  A    between atoms: _127  and  _128
REMARK   52  A    between atoms: _133  and  _135
REMARK   53  A    between atoms: _135  and  _136
REMARK   54  A    between atoms: _135  and  _138
REMARK   55  A    between atoms: _138  and  _139
REMARK   56  A    between atoms: _139  and  _140
REMARK   57  A    between atoms: _145  and  _147
REMARK   58  A    between atoms: _147  and  _148
REMARK   59  A    between atoms: _147  and  _150
REMARK   60  A    between atoms: _150  and  _151
REMARK   61  A    between atoms: _156  and  _158
REMARK   62  A    between atoms: _158  and  _159
REMARK   63  A    between atoms: _158  and  _161
REMARK   64  A    between atoms: _161  and  _162
REMARK   65  A    between atoms: _162  and  _163
REMARK   66  A    between atoms: _166  and  _168
REMARK   67  A    between atoms: _168  and  _169
REMARK   68  A    between atoms: _168  and  _171
REMARK   69  A    between atoms: _174  and  _176
REMARK   70  A    between atoms: _176  and  _177
REMARK   71  A    between atoms: _176  and  _179
REMARK   72  A    between atoms: _179  and  _180
REMARK   73  A    between atoms: _185  and  _186
REMARK   74  A    between atoms: _188  and  _190
REMARK   75  A    between atoms: _190  and  _191
REMARK   76  A    between atoms: _190  and  _193
REMARK   77  A    between atoms: _193  and  _194
REMARK   78  A    between atoms: _199  and  _201
REMARK   79  A    between atoms: _201  and  _202
REMARK   80  A    between atoms: _201  and  _204
REMARK   81  A    between atoms: _207  and  _209
REMARK   82  A    between atoms: _209  and  _210
REMARK   83  A    between atoms: _213  and  _215
REMARK   84  A    between atoms: _215  and  _216
REMARK   85  A    between atoms: _215  and  _218
REMARK   86  A    between atoms: _218  and  _219
REMARK   87  A    between atoms: _222  and  _224
REMARK   88  A    between atoms: _224  and  _225
REMARK   89  A    between atoms: _224  and  _227
REMARK   90  A    between atoms: _227  and  _228
REMARK   91  A    between atoms: _231  and  _233
REMARK   92  A    between atoms: _233  and  _234
REMARK   93  A    between atoms: _233  and  _236
REMARK   94  A    between atoms: _236  and  _237
REMARK   95  A    between atoms: _240  and  _242
REMARK   96  A    between atoms: _242  and  _243
REMARK   97  A    between atoms: _242  and  _245
REMARK   98  A    between atoms: _245  and  _246
REMARK   99  A    between atoms: _251  and  _252
REMARK  100  A    between atoms: _254  and  _256
REMARK  101  A    between atoms: _256  and  _257
REMARK  102  A    between atoms: _260  and  _262
REMARK  103  A    between atoms: _262  and  _263
REMARK  104  A    between atoms: _262  and  _265
REMARK  105  A    between atoms: _265  and  _266
REMARK  106  A    between atoms: _266  and  _267
REMARK  107  A    between atoms: _270  and  _272
REMARK  108  A    between atoms: _272  and  _273
REMARK  109  A    between atoms: _272  and  _275
REMARK  110  A    between atoms: _275  and  _276
REMARK  111  A    between atoms: _281  and  _283
REMARK  112  A    between atoms: _283  and  _284
REMARK  113  A    between atoms: _283  and  _286
REMARK  114  A    between atoms: _286  and  _287
REMARK  115  A    between atoms: _293  and  _295
REMARK  116  A    between atoms: _295  and  _296
REMARK  117  A    between atoms: _298  and  _300
REMARK  118  A    between atoms: _300  and  _301
REMARK  119  A    between atoms: _300  and  _303
REMARK  120  A    between atoms: _303  and  _304
REMARK  121  A    between atoms: _309  and  _310
REMARK  122  A    between atoms: _312  and  _314
REMARK  123  A    between atoms: _314  and  _315
REMARK  124  A    between atoms: _314  and  _317
REMARK  125  A    between atoms: _317  and  _318
REMARK  126  A    between atoms: _321  and  _323
REMARK  127  A    between atoms: _323  and  _324
REMARK  128  A    between atoms: _323  and  _326
REMARK  129  A    between atoms: _326  and  _327
REMARK  130  A    between atoms: _332  and  _334
REMARK  131  A    between atoms: _334  and  _335
REMARK  132  A    between atoms: _334  and  _337
REMARK  133  A    between atoms: _337  and  _338
REMARK  134  A    between atoms: _343  and  _344
REMARK  135  A    between atoms: _346  and  _348
REMARK  136  A    between atoms: _348  and  _349
REMARK  137  A    between atoms: _348  and  _351
REMARK  138  A    between atoms: _351  and  _352
REMARK  139  A    between atoms: _355  and  _357
REMARK  140  A    between atoms: _357  and  _358
REMARK                            x       y       z     vdW  Elec       q    Type
REMARK                         _______ _______ _______ _____ _____    ______ ____
ROOT
ATOM      1  O   HOH     1      66.785  23.891  32.010  0.00  0.00    +0.000 OA
ENDROOT
TORSDOF 0
REMARK  Name = ../refined-set-2016/4d1j/4d1j_pocket.pdb
REMARK  140 active torsions:
REMARK  status: ('A' for Active; 'I' for Inactive)
REMARK    1  A    between atoms: _1  and  _3
REMARK    2  A    between atoms: _3  and  _4
REMARK    3  A    between atoms: _3  and  _6
REMARK    4  A    between atoms: _6  and  _7
REMARK    5  A    between atoms: _7  and  _8
REMARK    6  A    between atoms: _13  and  _15
REMARK    7  A    between atoms: _15  and  _16
REMARK    8  A    between atoms: _15  and  _18
REMARK    9  A    between atoms: _18  and  _19
REMARK   10  A    between atoms: _22  and  _24
REMARK   11  A    between atoms: _24  and  _25
REMARK   12  A    between atoms: _24  and  _27
REMARK   13  A    between atoms: _27  and  _28
REMARK   14  A    between atoms: _33  and  _35
REMARK   15  A    between atoms: _35  and  _36
REMARK   16  A    between atoms: _35  and  _38
REMARK   17  A    between atoms: _38  and  _39
REMARK   18  A    between atoms: _45  and  _46
REMARK   19  A    between atoms: _51  and  _53
REMARK   20  A    between atoms: _53  and  _54
REMARK   21  A    between atoms: _53  and  _56
REMARK   22  A    between atoms: _56  and  _57
REMARK   23  A    between atoms: _60  and  _62
REMARK   24  A    between atoms: _62  and  _63
REMARK   25  A    between atoms: _62  and  _65
REMARK   26  A    between atoms: _65  and  _66
REMARK   27  A    between atoms: _72  and  _74
REMARK   28  A    between atoms: _74  and  _75
REMARK   29  A    between atoms: _74  and  _77
REMARK   30  A    between atoms: _77  and  _78
REMARK   31  A    between atoms: _78  and  _79
REMARK   32  A    between atoms: _79  and  _80
REMARK   33  A    between atoms: _80  and  _81
REMARK   34  A    between atoms: _85  and  _87
REMARK   35  A    between atoms: _87  and  _88
REMARK   36  A    between atoms: _87  and  _90
REMARK   37  A    between atoms: _90  and  _91
REMARK   38  A    between atoms: _96  and  _98
REMARK   39  A    between atoms: _98  and  _99
REMARK   40  A    between atoms: _98  and  _101
REMARK   41  A    between atoms: _101  and  _102
REMARK   42  A    between atoms: _107  and  _109
REMARK   43  A    between atoms: _109  and  _110
REMARK   44  A    between atoms: _109  and  _112
REMARK   45  A    between atoms: _112  and  _113
REMARK   46  A    between atoms: _118  and  _119
REMARK   47  A    between atoms: _121  and  _123
REMARK   48  A    between atoms: _123  and  _124
REMARK   49  A    between atoms: _123  and  _126
REMARK   50  A    between atoms: _126  and  _127
REMARK   51  A    between atoms: _127  and  _128
REMARK   52  A    between atoms: _133  and  _135
REMARK   53  A    between atoms: _135  and  _136
REMARK   54  A    between atoms: _135  and  _138
REMARK   55  A    between atoms: _138  and  _139
REMARK   56  A    between atoms: _139  and  _140
REMARK   57  A    between atoms: _145  and  _147
REMARK   58  A    between atoms: _147  and  _148
REMARK   59  A    between atoms: _147  and  _150
REMARK   60  A    between atoms: _150  and  _151
REMARK   61  A    between atoms: _156  and  _158
REMARK   62  A    between atoms: _158  and  _159
REMARK   63  A    between atoms: _158  and  _161
REMARK   64  A    between atoms: _161  and  _162
REMARK   65  A    between atoms: _162  and  _163
REMARK   66  A    between atoms: _166  and  _168
REMARK   67  A    between atoms: _168  and  _169
REMARK   68  A    between atoms: _168  and  _171
REMARK   69  A    between atoms: _174  and  _176
REMARK   70  A    between atoms: _176  and  _177
REMARK   71  A    between atoms: _176  and  _179
REMARK   72  A    between atoms: _179  and  _180
REMARK   73  A    between atoms: _185  and  _186
REMARK   74  A    between atoms: _188  and  _190
REMARK   75  A    between atoms: _190  and  _191
REMARK   76  A    between atoms: _190  and  _193
REMARK   77  A    between atoms: _193  and  _194
REMARK   78  A    between atoms: _199  and  _201
REMARK   79  A    between atoms: _201  and  _202
REMARK   80  A    between atoms: _201  and  _204
REMARK   81  A    between atoms: _207  and  _209
REMARK   82  A    between atoms: _209  and  _210
REMARK   83  A    between atoms: _213  and  _215
REMARK   84  A    between atoms: _215  and  _216
REMARK   85  A    between atoms: _215  and  _218
REMARK   86  A    between atoms: _218  and  _219
REMARK   87  A    between atoms: _222  and  _224
REMARK   88  A    between atoms: _224  and  _225
REMARK   89  A    between atoms: _224  and  _227
REMARK   90  A    between atoms: _227  and  _228
REMARK   91  A    between atoms: _231  and  _233
REMARK   92  A    between atoms: _233  and  _234
REMARK   93  A    between atoms: _233  and  _236
REMARK   94  A    between atoms: _236  and  _237
REMARK   95  A    between atoms: _240  and  _242
REMARK   96  A    between atoms: _242  and  _243
REMARK   97  A    between atoms: _242  and  _245
REMARK   98  A    between atoms: _245  and  _246
REMARK   99  A    between atoms: _251  and  _252
REMARK  100  A    between atoms: _254  and  _256
REMARK  101  A    between atoms: _256  and  _257
REMARK  102  A    between atoms: _260  and  _262
REMARK  103  A    between atoms: _262  and  _263
REMARK  104  A    between atoms: _262  and  _265
REMARK  105  A    between atoms: _265  and  _266
REMARK  106  A    between atoms: _266  and  _267
REMARK  107  A    between atoms: _270  and  _272
REMARK  108  A    between atoms: _272  and  _273
REMARK  109  A    between atoms: _272  and  _275
REMARK  110  A    between atoms: _275  and  _276
REMARK  111  A    between atoms: _281  and  _283
REMARK  112  A    between atoms: _283  and  _284
REMARK  113  A    between atoms: _283  and  _286
REMARK  114  A    between atoms: _286  and  _287
REMARK  115  A    between atoms: _293  and  _295
REMARK  116  A    between atoms: _295  and  _296
REMARK  117  A    between atoms: _298  and  _300
REMARK  118  A    between atoms: _300  and  _301
REMARK  119  A    between atoms: _300  and  _303
REMARK  120  A    between atoms: _303  and  _304
REMARK  121  A    between atoms: _309  and  _310
REMARK  122  A    between atoms: _312  and  _314
REMARK  123  A    between atoms: _314  and  _315
REMARK  124  A    between atoms: _314  and  _317
REMARK  125  A    between atoms: _317  and  _318
REMARK  126  A    between atoms: _321  and  _323
REMARK  127  A    between atoms: _323  and  _324
REMARK  128  A    between atoms: _323  and  _326
REMARK  129  A    between atoms: _326  and  _327
REMARK  130  A    between atoms: _332  and  _334
REMARK  131  A    between atoms: _334  and  _335
REMARK  132  A    between atoms: _334  and  _337
REMARK  133  A    between atoms: _337  and  _338
REMARK  134  A    between atoms: _343  and  _344
REMARK  135  A    between atoms: _346  and  _348
REMARK  136  A    between atoms: _348  and  _349
REMARK  137  A    between atoms: _348  and  _351
REMARK  138  A    between atoms: _351  and  _352
REMARK  139  A    between atoms: _355  and  _357
REMARK  140  A    between atoms: _357  and  _358
REMARK                            x       y       z     vdW  Elec       q    Type
REMARK                         _______ _______ _______ _____ _____    ______ ____
ROOT
ATOM      1  O   HOH     1      71.152  26.032  31.499  0.00  0.00    +0.000 OA
ENDROOT
TORSDOF 0
REMARK  Name = ../refined-set-2016/4d1j/4d1j_pocket.pdb
REMARK  140 active torsions:
REMARK  status: ('A' for Active; 'I' for Inactive)
REMARK    1  A    between atoms: _1  and  _3
REMARK    2  A    between atoms: _3  and  _4
REMARK    3  A    between atoms: _3  and  _6
REMARK    4  A    between atoms: _6  and  _7
REMARK    5  A    between atoms: _7  and  _8
REMARK    6  A    between atoms: _13  and  _15
REMARK    7  A    between atoms: _15  and  _16
REMARK    8  A    between atoms: _15  and  _18
REMARK    9  A    between atoms: _18  and  _19
REMARK   10  A    between atoms: _22  and  _24
REMARK   11  A    between atoms: _24  and  _25
REMARK   12  A    between atoms: _24  and  _27
REMARK   13  A    between atoms: _27  and  _28
REMARK   14  A    between atoms: _33  and  _35
REMARK   15  A    between atoms: _35  and  _36
REMARK   16  A    between atoms: _35  and  _38
REMARK   17  A    between atoms: _38  and  _39
REMARK   18  A    between atoms: _45  and  _46
REMARK   19  A    between atoms: _51  and  _53
REMARK   20  A    between atoms: _53  and  _54
REMARK   21  A    between atoms: _53  and  _56
REMARK   22  A    between atoms: _56  and  _57
REMARK   23  A    between atoms: _60  and  _62
REMARK   24  A    between atoms: _62  and  _63
REMARK   25  A    between atoms: _62  and  _65
REMARK   26  A    between atoms: _65  and  _66
REMARK   27  A    between atoms: _72  and  _74
REMARK   28  A    between atoms: _74  and  _75
REMARK   29  A    between atoms: _74  and  _77
REMARK   30  A    between atoms: _77  and  _78
REMARK   31  A    between atoms: _78  and  _79
REMARK   32  A    between atoms: _79  and  _80
REMARK   33  A    between atoms: _80  and  _81
REMARK   34  A    between atoms: _85  and  _87
REMARK   35  A    between atoms: _87  and  _88
REMARK   36  A    between atoms: _87  and  _90
REMARK   37  A    between atoms: _90  and  _91
REMARK   38  A    between atoms: _96  and  _98
REMARK   39  A    between atoms: _98  and  _99
REMARK   40  A    between atoms: _98  and  _101
REMARK   41  A    between atoms: _101  and  _102
REMARK   42  A    between atoms: _107  and  _109
REMARK   43  A    between atoms: _109  and  _110
REMARK   44  A    between atoms: _109  and  _112
REMARK   45  A    between atoms: _112  and  _113
REMARK   46  A    between atoms: _118  and  _119
REMARK   47  A    between atoms: _121  and  _123
REMARK   48  A    between atoms: _123  and  _124
REMARK   49  A    between atoms: _123  and  _126
REMARK   50  A    between atoms: _126  and  _127
REMARK   51  A    between atoms: _127  and  _128
REMARK   52  A    between atoms: _133  and  _135
REMARK   53  A    between atoms: _135  and  _136
REMARK   54  A    between atoms: _135  and  _138
REMARK   55  A    between atoms: _138  and  _139
REMARK   56  A    between atoms: _139  and  _140
REMARK   57  A    between atoms: _145  and  _147
REMARK   58  A    between atoms: _147  and  _148
REMARK   59  A    between atoms: _147  and  _150
REMARK   60  A    between atoms: _150  and  _151
REMARK   61  A    between atoms: _156  and  _158
REMARK   62  A    between atoms: _158  and  _159
REMARK   63  A    between atoms: _158  and  _161
REMARK   64  A    between atoms: _161  and  _162
REMARK   65  A    between atoms: _162  and  _163
REMARK   66  A    between atoms: _166  and  _168
REMARK   67  A    between atoms: _168  and  _169
REMARK   68  A    between atoms: _168  and  _171
REMARK   69  A    between atoms: _174  and  _176
REMARK   70  A    between atoms: _176  and  _177
REMARK   71  A    between atoms: _176  and  _179
REMARK   72  A    between atoms: _179  and  _180
REMARK   73  A    between atoms: _185  and  _186
REMARK   74  A    between atoms: _188  and  _190
REMARK   75  A    between atoms: _190  and  _191
REMARK   76  A    between atoms: _190  and  _193
REMARK   77  A    between atoms: _193  and  _194
REMARK   78  A    between atoms: _199  and  _201
REMARK   79  A    between atoms: _201  and  _202
REMARK   80  A    between atoms: _201  and  _204
REMARK   81  A    between atoms: _207  and  _209
REMARK   82  A    between atoms: _209  and  _210
REMARK   83  A    between atoms: _213  and  _215
REMARK   84  A    between atoms: _215  and  _216
REMARK   85  A    between atoms: _215  and  _218
REMARK   86  A    between atoms: _218  and  _219
REMARK   87  A    between atoms: _222  and  _224
REMARK   88  A    between atoms: _224  and  _225
REMARK   89  A    between atoms: _224  and  _227
REMARK   90  A    between atoms: _227  and  _228
REMARK   91  A    between atoms: _231  and  _233
REMARK   92  A    between atoms: _233  and  _234
REMARK   93  A    between atoms: _233  and  _236
REMARK   94  A    between atoms: _236  and  _237
REMARK   95  A    between atoms: _240  and  _242
REMARK   96  A    between atoms: _242  and  _243
REMARK   97  A    between atoms: _242  and  _245
REMARK   98  A    between atoms: _245  and  _246
REMARK   99  A    between atoms: _251  and  _252
REMARK  100  A    between atoms: _254  and  _256
REMARK  101  A    between atoms: _256  and  _257
REMARK  102  A    between atoms: _260  and  _262
REMARK  103  A    between atoms: _262  and  _263
REMARK  104  A    between atoms: _262  and  _265
REMARK  105  A    between atoms: _265  and  _266
REMARK  106  A    between atoms: _266  and  _267
REMARK  107  A    between atoms: _270  and  _272
REMARK  108  A    between atoms: _272  and  _273
REMARK  109  A    between atoms: _272  and  _275
REMARK  110  A    between atoms: _275  and  _276
REMARK  111  A    between atoms: _281  and  _283
REMARK  112  A    between atoms: _283  and  _284
REMARK  113  A    between atoms: _283  and  _286
REMARK  114  A    between atoms: _286  and  _287
REMARK  115  A    between atoms: _293  and  _295
REMARK  116  A    between atoms: _295  and  _296
REMARK  117  A    between atoms: _298  and  _300
REMARK  118  A    between atoms: _300  and  _301
REMARK  119  A    between atoms: _300  and  _303
REMARK  120  A    between atoms: _303  and  _304
REMARK  121  A    between atoms: _309  and  _310
REMARK  122  A    between atoms: _312  and  _314
REMARK  123  A    between atoms: _314  and  _315
REMARK  124  A    between atoms: _314  and  _317
REMARK  125  A    between atoms: _317  and  _318
REMARK  126  A    between atoms: _321  and  _323
REMARK  127  A    between atoms: _323  and  _324
REMARK  128  A    between atoms: _323  and  _326
REMARK  129  A    between atoms: _326  and  _327
REMARK  130  A    between atoms: _332  and  _334
REMARK  131  A    between atoms: _334  and  _335
REMARK  132  A    between atoms: _334  and  _337
REMARK  133  A    between atoms: _337  and  _338
REMARK  134  A    between atoms: _343  and  _344
REMARK  135  A    between atoms: _346  and  _348
REMARK  136  A    between atoms: _348  and  _349
REMARK  137  A    between atoms: _348  and  _351
REMARK  138  A    between atoms: _351  and  _352
REMARK  139  A    between atoms: _355  and  _357
REMARK  140  A    between atoms: _357  and  _358
REMARK                            x       y       z     vdW  Elec       q    Type
REMARK                         _______ _______ _______ _____ _____    ______ ____
ROOT
ATOM      1  O   HOH     1      68.431  30.534  29.364  0.00  0.00    +0.000 OA
ENDROOT
TORSDOF 0
REMARK  Name = ../refined-set-2016/4d1j/4d1j_pocket.pdb
REMARK  140 active torsions:
REMARK  status: ('A' for Active; 'I' for Inactive)
REMARK    1  A    between atoms: _1  and  _3
REMARK    2  A    between atoms: _3  and  _4
REMARK    3  A    between atoms: _3  and  _6
REMARK    4  A    between atoms: _6  and  _7
REMARK    5  A    between atoms: _7  and  _8
REMARK    6  A    between atoms: _13  and  _15
REMARK    7  A    between atoms: _15  and  _16
REMARK    8  A    between atoms: _15  and  _18
REMARK    9  A    between atoms: _18  and  _19
REMARK   10  A    between atoms: _22  and  _24
REMARK   11  A    between atoms: _24  and  _25
REMARK   12  A    between atoms: _24  and  _27
REMARK   13  A    between atoms: _27  and  _28
REMARK   14  A    between atoms: _33  and  _35
REMARK   15  A    between atoms: _35  and  _36
REMARK   16  A    between atoms: _35  and  _38
REMARK   17  A    between atoms: _38  and  _39
REMARK   18  A    between atoms: _45  and  _46
REMARK   19  A    between atoms: _51  and  _53
REMARK   20  A    between atoms: _53  and  _54
REMARK   21  A    between atoms: _53  and  _56
REMARK   22  A    between atoms: _56  and  _57
REMARK   23  A    between atoms: _60  and  _62
REMARK   24  A    between atoms: _62  and  _63
REMARK   25  A    between atoms: _62  and  _65
REMARK   26  A    between atoms: _65  and  _66
REMARK   27  A    between atoms: _72  and  _74
REMARK   28  A    between atoms: _74  and  _75
REMARK   29  A    between atoms: _74  and  _77
REMARK   30  A    between atoms: _77  and  _78
REMARK   31  A    between atoms: _78  and  _79
REMARK   32  A    between atoms: _79  and  _80
REMARK   33  A    between atoms: _80  and  _81
REMARK   34  A    between atoms: _85  and  _87
REMARK   35  A    between atoms: _87  and  _88
REMARK   36  A    between atoms: _87  and  _90
REMARK   37  A    between atoms: _90  and  _91
REMARK   38  A    between atoms: _96  and  _98
REMARK   39  A    between atoms: _98  and  _99
REMARK   40  A    between atoms: _98  and  _101
REMARK   41  A    between atoms: _101  and  _102
REMARK   42  A    between atoms: _107  and  _109
REMARK   43  A    between atoms: _109  and  _110
REMARK   44  A    between atoms: _109  and  _112
REMARK   45  A    between atoms: _112  and  _113
REMARK   46  A    between atoms: _118  and  _119
REMARK   47  A    between atoms: _121  and  _123
REMARK   48  A    between atoms: _123  and  _124
REMARK   49  A    between atoms: _123  and  _126
REMARK   50  A    between atoms: _126  and  _127
REMARK   51  A    between atoms: _127  and  _128
REMARK   52  A    between atoms: _133  and  _135
REMARK   53  A    between atoms: _135  and  _136
REMARK   54  A    between atoms: _135  and  _138
REMARK   55  A    between atoms: _138  and  _139
REMARK   56  A    between atoms: _139  and  _140
REMARK   57  A    between atoms: _145  and  _147
REMARK   58  A    between atoms: _147  and  _148
REMARK   59  A    between atoms: _147  and  _150
REMARK   60  A    between atoms: _150  and  _151
REMARK   61  A    between atoms: _156  and  _158
REMARK   62  A    between atoms: _158  and  _159
REMARK   63  A    between atoms: _158  and  _161
REMARK   64  A    between atoms: _161  and  _162
REMARK   65  A    between atoms: _162  and  _163
REMARK   66  A    between atoms: _166  and  _168
REMARK   67  A    between atoms: _168  and  _169
REMARK   68  A    between atoms: _168  and  _171
REMARK   69  A    between atoms: _174  and  _176
REMARK   70  A    between atoms: _176  and  _177
REMARK   71  A    between atoms: _176  and  _179
REMARK   72  A    between atoms: _179  and  _180
REMARK   73  A    between atoms: _185  and  _186
REMARK   74  A    between atoms: _188  and  _190
REMARK   75  A    between atoms: _190  and  _191
REMARK   76  A    between atoms: _190  and  _193
REMARK   77  A    between atoms: _193  and  _194
REMARK   78  A    between atoms: _199  and  _201
REMARK   79  A    between atoms: _201  and  _202
REMARK   80  A    between atoms: _201  and  _204
REMARK   81  A    between atoms: _207  and  _209
REMARK   82  A    between atoms: _209  and  _210
REMARK   83  A    between atoms: _213  and  _215
REMARK   84  A    between atoms: _215  and  _216
REMARK   85  A    between atoms: _215  and  _218
REMARK   86  A    between atoms: _218  and  _219
REMARK   87  A    between atoms: _222  and  _224
REMARK   88  A    between atoms: _224  and  _225
REMARK   89  A    between atoms: _224  and  _227
REMARK   90  A    between atoms: _227  and  _228
REMARK   91  A    between atoms: _231  and  _233
REMARK   92  A    between atoms: _233  and  _234
REMARK   93  A    between atoms: _233  and  _236
REMARK   94  A    between atoms: _236  and  _237
REMARK   95  A    between atoms: _240  and  _242
REMARK   96  A    between atoms: _242  and  _243
REMARK   97  A    between atoms: _242  and  _245
REMARK   98  A    between atoms: _245  and  _246
REMARK   99  A    between atoms: _251  and  _252
REMARK  100  A    between atoms: _254  and  _256
REMARK  101  A    between atoms: _256  and  _257
REMARK  102  A    between atoms: _260  and  _262
REMARK  103  A    between atoms: _262  and  _263
REMARK  104  A    between atoms: _262  and  _265
REMARK  105  A    between atoms: _265  and  _266
REMARK  106  A    between atoms: _266  and  _267
REMARK  107  A    between atoms: _270  and  _272
REMARK  108  A    between atoms: _272  and  _273
REMARK  109  A    between atoms: _272  and  _275
REMARK  110  A    between atoms: _275  and  _276
REMARK  111  A    between atoms: _281  and  _283
REMARK  112  A    between atoms: _283  and  _284
REMARK  113  A    between atoms: _283  and  _286
REMARK  114  A    between atoms: _286  and  _287
REMARK  115  A    between atoms: _293  and  _295
REMARK  116  A    between atoms: _295  and  _296
REMARK  117  A    between atoms: _298  and  _300
REMARK  118  A    between atoms: _300  and  _301
REMARK  119  A    between atoms: _300  and  _303
REMARK  120  A    between atoms: _303  and  _304
REMARK  121  A    between atoms: _309  and  _310
REMARK  122  A    between atoms: _312  and  _314
REMARK  123  A    between atoms: _314  and  _315
REMARK  124  A    between atoms: _314  and  _317
REMARK  125  A    between atoms: _317  and  _318
REMARK  126  A    between atoms: _321  and  _323
REMARK  127  A    between atoms: _323  and  _324
REMARK  128  A    between atoms: _323  and  _326
REMARK  129  A    between atoms: _326  and  _327
REMARK  130  A    between atoms: _332  and  _334
REMARK  131  A    between atoms: _334  and  _335
REMARK  132  A    between atoms: _334  and  _337
REMARK  133  A    between atoms: _337  and  _338
REMARK  134  A    between atoms: _343  and  _344
REMARK  135  A    between atoms: _346  and  _348
REMARK  136  A    between atoms: _348  and  _349
REMARK  137  A    between atoms: _348  and  _351
REMARK  138  A    between atoms: _351  and  _352
REMARK  139  A    between atoms: _355  and  _357
REMARK  140  A    between atoms: _357  and  _358
REMARK                            x       y       z     vdW  Elec       q    Type
REMARK                         _______ _______ _______ _____ _____    ______ ____
ROOT
ATOM      1  O   HOH     1      63.389  36.309  37.168  0.00  0.00    +0.000 OA
ENDROOT
TORSDOF 0
REMARK  Name = ../refined-set-2016/4d1j/4d1j_pocket.pdb
REMARK  140 active torsions:
REMARK  status: ('A' for Active; 'I' for Inactive)
REMARK    1  A    between atoms: _1  and  _3
REMARK    2  A    between atoms: _3  and  _4
REMARK    3  A    between atoms: _3  and  _6
REMARK    4  A    between atoms: _6  and  _7
REMARK    5  A    between atoms: _7  and  _8
REMARK    6  A    between atoms: _13  and  _15
REMARK    7  A    between atoms: _15  and  _16
REMARK    8  A    between atoms: _15  and  _18
REMARK    9  A    between atoms: _18  and  _19
REMARK   10  A    between atoms: _22  and  _24
REMARK   11  A    between atoms: _24  and  _25
REMARK   12  A    between atoms: _24  and  _27
REMARK   13  A    between atoms: _27  and  _28
REMARK   14  A    between atoms: _33  and  _35
REMARK   15  A    between atoms: _35  and  _36
REMARK   16  A    between atoms: _35  and  _38
REMARK   17  A    between atoms: _38  and  _39
REMARK   18  A    between atoms: _45  and  _46
REMARK   19  A    between atoms: _51  and  _53
REMARK   20  A    between atoms: _53  and  _54
REMARK   21  A    between atoms: _53  and  _56
REMARK   22  A    between atoms: _56  and  _57
REMARK   23  A    between atoms: _60  and  _62
REMARK   24  A    between atoms: _62  and  _63
REMARK   25  A    between atoms: _62  and  _65
REMARK   26  A    between atoms: _65  and  _66
REMARK   27  A    between atoms: _72  and  _74
REMARK   28  A    between atoms: _74  and  _75
REMARK   29  A    between atoms: _74  and  _77
REMARK   30  A    between atoms: _77  and  _78
REMARK   31  A    between atoms: _78  and  _79
REMARK   32  A    between atoms: _79  and  _80
REMARK   33  A    between atoms: _80  and  _81
REMARK   34  A    between atoms: _85  and  _87
REMARK   35  A    between atoms: _87  and  _88
REMARK   36  A    between atoms: _87  and  _90
REMARK   37  A    between atoms: _90  and  _91
REMARK   38  A    between atoms: _96  and  _98
REMARK   39  A    between atoms: _98  and  _99
REMARK   40  A    between atoms: _98  and  _101
REMARK   41  A    between atoms: _101  and  _102
REMARK   42  A    between atoms: _107  and  _109
REMARK   43  A    between atoms: _109  and  _110
REMARK   44  A    between atoms: _109  and  _112
REMARK   45  A    between atoms: _112  and  _113
REMARK   46  A    between atoms: _118  and  _119
REMARK   47  A    between atoms: _121  and  _123
REMARK   48  A    between atoms: _123  and  _124
REMARK   49  A    between atoms: _123  and  _126
REMARK   50  A    between atoms: _126  and  _127
REMARK   51  A    between atoms: _127  and  _128
REMARK   52  A    between atoms: _133  and  _135
REMARK   53  A    between atoms: _135  and  _136
REMARK   54  A    between atoms: _135  and  _138
REMARK   55  A    between atoms: _138  and  _139
REMARK   56  A    between atoms: _139  and  _140
REMARK   57  A    between atoms: _145  and  _147
REMARK   58  A    between atoms: _147  and  _148
REMARK   59  A    between atoms: _147  and  _150
REMARK   60  A    between atoms: _150  and  _151
REMARK   61  A    between atoms: _156  and  _158
REMARK   62  A    between atoms: _158  and  _159
REMARK   63  A    between atoms: _158  and  _161
REMARK   64  A    between atoms: _161  and  _162
REMARK   65  A    between atoms: _162  and  _163
REMARK   66  A    between atoms: _166  and  _168
REMARK   67  A    between atoms: _168  and  _169
REMARK   68  A    between atoms: _168  and  _171
REMARK   69  A    between atoms: _174  and  _176
REMARK   70  A    between atoms: _176  and  _177
REMARK   71  A    between atoms: _176  and  _179
REMARK   72  A    between atoms: _179  and  _180
REMARK   73  A    between atoms: _185  and  _186
REMARK   74  A    between atoms: _188  and  _190
REMARK   75  A    between atoms: _190  and  _191
REMARK   76  A    between atoms: _190  and  _193
REMARK   77  A    between atoms: _193  and  _194
REMARK   78  A    between atoms: _199  and  _201
REMARK   79  A    between atoms: _201  and  _202
REMARK   80  A    between atoms: _201  and  _204
REMARK   81  A    between atoms: _207  and  _209
REMARK   82  A    between atoms: _209  and  _210
REMARK   83  A    between atoms: _213  and  _215
REMARK   84  A    between atoms: _215  and  _216
REMARK   85  A    between atoms: _215  and  _218
REMARK   86  A    between atoms: _218  and  _219
REMARK   87  A    between atoms: _222  and  _224
REMARK   88  A    between atoms: _224  and  _225
REMARK   89  A    between atoms: _224  and  _227
REMARK   90  A    between atoms: _227  and  _228
REMARK   91  A    between atoms: _231  and  _233
REMARK   92  A    between atoms: _233  and  _234
REMARK   93  A    between atoms: _233  and  _236
REMARK   94  A    between atoms: _236  and  _237
REMARK   95  A    between atoms: _240  and  _242
REMARK   96  A    between atoms: _242  and  _243
REMARK   97  A    between atoms: _242  and  _245
REMARK   98  A    between atoms: _245  and  _246
REMARK   99  A    between atoms: _251  and  _252
REMARK  100  A    between atoms: _254  and  _256
REMARK  101  A    between atoms: _256  and  _257
REMARK  102  A    between atoms: _260  and  _262
REMARK  103  A    between atoms: _262  and  _263
REMARK  104  A    between atoms: _262  and  _265
REMARK  105  A    between atoms: _265  and  _266
REMARK  106  A    between atoms: _266  and  _267
REMARK  107  A    between atoms: _270  and  _272
REMARK  108  A    between atoms: _272  and  _273
REMARK  109  A    between atoms: _272  and  _275
REMARK  110  A    between atoms: _275  and  _276
REMARK  111  A    between atoms: _281  and  _283
REMARK  112  A    between atoms: _283  and  _284
REMARK  113  A    between atoms: _283  and  _286
REMARK  114  A    between atoms: _286  and  _287
REMARK  115  A    between atoms: _293  and  _295
REMARK  116  A    between atoms: _295  and  _296
REMARK  117  A    between atoms: _298  and  _300
REMARK  118  A    between atoms: _300  and  _301
REMARK  119  A    between atoms: _300  and  _303
REMARK  120  A    between atoms: _303  and  _304
REMARK  121  A    between atoms: _309  and  _310
REMARK  122  A    between atoms: _312  and  _314
REMARK  123  A    between atoms: _314  and  _315
REMARK  124  A    between atoms: _314  and  _317
REMARK  125  A    between atoms: _317  and  _318
REMARK  126  A    between atoms: _321  and  _323
REMARK  127  A    between atoms: _323  and  _324
REMARK  128  A    between atoms: _323  and  _326
REMARK  129  A    between atoms: _326  and  _327
REMARK  130  A    between atoms: _332  and  _334
REMARK  131  A    between atoms: _334  and  _335
REMARK  132  A    between atoms: _334  and  _337
REMARK  133  A    between atoms: _337  and  _338
REMARK  134  A    between atoms: _343  and  _344
REMARK  135  A    between atoms: _346  and  _348
REMARK  136  A    between atoms: _348  and  _349
REMARK  137  A    between atoms: _348  and  _351
REMARK  138  A    between atoms: _351  and  _352
REMARK  139  A    between atoms: _355  and  _357
REMARK  140  A    between atoms: _357  and  _358
REMARK                            x       y       z     vdW  Elec       q    Type
REMARK                         _______ _______ _______ _____ _____    ______ ____
ROOT
ATOM      1  O   HOH     1      63.442  36.862  41.563  0.00  0.00    +0.000 OA
ENDROOT
TORSDOF 0
REMARK  Name = ../refined-set-2016/4d1j/4d1j_pocket.pdb
REMARK  140 active torsions:
REMARK  status: ('A' for Active; 'I' for Inactive)
REMARK    1  A    between atoms: _1  and  _3
REMARK    2  A    between atoms: _3  and  _4
REMARK    3  A    between atoms: _3  and  _6
REMARK    4  A    between atoms: _6  and  _7
REMARK    5  A    between atoms: _7  and  _8
REMARK    6  A    between atoms: _13  and  _15
REMARK    7  A    between atoms: _15  and  _16
REMARK    8  A    between atoms: _15  and  _18
REMARK    9  A    between atoms: _18  and  _19
REMARK   10  A    between atoms: _22  and  _24
REMARK   11  A    between atoms: _24  and  _25
REMARK   12  A    between atoms: _24  and  _27
REMARK   13  A    between atoms: _27  and  _28
REMARK   14  A    between atoms: _33  and  _35
REMARK   15  A    between atoms: _35  and  _36
REMARK   16  A    between atoms: _35  and  _38
REMARK   17  A    between atoms: _38  and  _39
REMARK   18  A    between atoms: _45  and  _46
REMARK   19  A    between atoms: _51  and  _53
REMARK   20  A    between atoms: _53  and  _54
REMARK   21  A    between atoms: _53  and  _56
REMARK   22  A    between atoms: _56  and  _57
REMARK   23  A    between atoms: _60  and  _62
REMARK   24  A    between atoms: _62  and  _63
REMARK   25  A    between atoms: _62  and  _65
REMARK   26  A    between atoms: _65  and  _66
REMARK   27  A    between atoms: _72  and  _74
REMARK   28  A    between atoms: _74  and  _75
REMARK   29  A    between atoms: _74  and  _77
REMARK   30  A    between atoms: _77  and  _78
REMARK   31  A    between atoms: _78  and  _79
REMARK   32  A    between atoms: _79  and  _80
REMARK   33  A    between atoms: _80  and  _81
REMARK   34  A    between atoms: _85  and  _87
REMARK   35  A    between atoms: _87  and  _88
REMARK   36  A    between atoms: _87  and  _90
REMARK   37  A    between atoms: _90  and  _91
REMARK   38  A    between atoms: _96  and  _98
REMARK   39  A    between atoms: _98  and  _99
REMARK   40  A    between atoms: _98  and  _101
REMARK   41  A    between atoms: _101  and  _102
REMARK   42  A    between atoms: _107  and  _109
REMARK   43  A    between atoms: _109  and  _110
REMARK   44  A    between atoms: _109  and  _112
REMARK   45  A    between atoms: _112  and  _113
REMARK   46  A    between atoms: _118  and  _119
REMARK   47  A    between atoms: _121  and  _123
REMARK   48  A    between atoms: _123  and  _124
REMARK   49  A    between atoms: _123  and  _126
REMARK   50  A    between atoms: _126  and  _127
REMARK   51  A    between atoms: _127  and  _128
REMARK   52  A    between atoms: _133  and  _135
REMARK   53  A    between atoms: _135  and  _136
REMARK   54  A    between atoms: _135  and  _138
REMARK   55  A    between atoms: _138  and  _139
REMARK   56  A    between atoms: _139  and  _140
REMARK   57  A    between atoms: _145  and  _147
REMARK   58  A    between atoms: _147  and  _148
REMARK   59  A    between atoms: _147  and  _150
REMARK   60  A    between atoms: _150  and  _151
REMARK   61  A    between atoms: _156  and  _158
REMARK   62  A    between atoms: _158  and  _159
REMARK   63  A    between atoms: _158  and  _161
REMARK   64  A    between atoms: _161  and  _162
REMARK   65  A    between atoms: _162  and  _163
REMARK   66  A    between atoms: _166  and  _168
REMARK   67  A    between atoms: _168  and  _169
REMARK   68  A    between atoms: _168  and  _171
REMARK   69  A    between atoms: _174  and  _176
REMARK   70  A    between atoms: _176  and  _177
REMARK   71  A    between atoms: _176  and  _179
REMARK   72  A    between atoms: _179  and  _180
REMARK   73  A    between atoms: _185  and  _186
REMARK   74  A    between atoms: _188  and  _190
REMARK   75  A    between atoms: _190  and  _191
REMARK   76  A    between atoms: _190  and  _193
REMARK   77  A    between atoms: _193  and  _194
REMARK   78  A    between atoms: _199  and  _201
REMARK   79  A    between atoms: _201  and  _202
REMARK   80  A    between atoms: _201  and  _204
REMARK   81  A    between atoms: _207  and  _209
REMARK   82  A    between atoms: _209  and  _210
REMARK   83  A    between atoms: _213  and  _215
REMARK   84  A    between atoms: _215  and  _216
REMARK   85  A    between atoms: _215  and  _218
REMARK   86  A    between atoms: _218  and  _219
REMARK   87  A    between atoms: _222  and  _224
REMARK   88  A    between atoms: _224  and  _225
REMARK   89  A    between atoms: _224  and  _227
REMARK   90  A    between atoms: _227  and  _228
REMARK   91  A    between atoms: _231  and  _233
REMARK   92  A    between atoms: _233  and  _234
REMARK   93  A    between atoms: _233  and  _236
REMARK   94  A    between atoms: _236  and  _237
REMARK   95  A    between atoms: _240  and  _242
REMARK   96  A    between atoms: _242  and  _243
REMARK   97  A    between atoms: _242  and  _245
REMARK   98  A    between atoms: _245  and  _246
REMARK   99  A    between atoms: _251  and  _252
REMARK  100  A    between atoms: _254  and  _256
REMARK  101  A    between atoms: _256  and  _257
REMARK  102  A    between atoms: _260  and  _262
REMARK  103  A    between atoms: _262  and  _263
REMARK  104  A    between atoms: _262  and  _265
REMARK  105  A    between atoms: _265  and  _266
REMARK  106  A    between atoms: _266  and  _267
REMARK  107  A    between atoms: _270  and  _272
REMARK  108  A    between atoms: _272  and  _273
REMARK  109  A    between atoms: _272  and  _275
REMARK  110  A    between atoms: _275  and  _276
REMARK  111  A    between atoms: _281  and  _283
REMARK  112  A    between atoms: _283  and  _284
REMARK  113  A    between atoms: _283  and  _286
REMARK  114  A    between atoms: _286  and  _287
REMARK  115  A    between atoms: _293  and  _295
REMARK  116  A    between atoms: _295  and  _296
REMARK  117  A    between atoms: _298  and  _300
REMARK  118  A    between atoms: _300  and  _301
REMARK  119  A    between atoms: _300  and  _303
REMARK  120  A    between atoms: _303  and  _304
REMARK  121  A    between atoms: _309  and  _310
REMARK  122  A    between atoms: _312  and  _314
REMARK  123  A    between atoms: _314  and  _315
REMARK  124  A    between atoms: _314  and  _317
REMARK  125  A    between atoms: _317  and  _318
REMARK  126  A    between atoms: _321  and  _323
REMARK  127  A    between atoms: _323  and  _324
REMARK  128  A    between atoms: _323  and  _326
REMARK  129  A    between atoms: _326  and  _327
REMARK  130  A    between atoms: _332  and  _334
REMARK  131  A    between atoms: _334  and  _335
REMARK  132  A    between atoms: _334  and  _337
REMARK  133  A    between atoms: _337  and  _338
REMARK  134  A    between atoms: _343  and  _344
REMARK  135  A    between atoms: _346  and  _348
REMARK  136  A    between atoms: _348  and  _349
REMARK  137  A    between atoms: _348  and  _351
REMARK  138  A    between atoms: _351  and  _352
REMARK  139  A    between atoms: _355  and  _357
REMARK  140  A    between atoms: _357  and  _358
REMARK                            x       y       z     vdW  Elec       q    Type
REMARK                         _______ _______ _______ _____ _____    ______ ____
ROOT
ATOM      1  O   HOH     1      67.079  30.227  34.001  0.00  0.00    +0.000 OA
ENDROOT
TORSDOF 0
