REMARK  Name = ../refined-set-2016/1o0f/1o0f_pocket.pdb
REMARK  110 active torsions:
REMARK  status: ('A' for Active; 'I' for Inactive)
REMARK    1  A    between atoms: _1  and  _3
REMARK    2  A    between atoms: _3  and  _4
REMARK    3  A    between atoms: _7  and  _9
REMARK    4  A    between atoms: _9  and  _10
REMARK    5  A    between atoms: _9  and  _12
REMARK    6  A    between atoms: _12  and  _13
REMARK    7  A    between atoms: _13  and  _14
REMARK    8  A    between atoms: _14  and  _15
REMARK    9  A    between atoms: _15  and  _16
REMARK   10  A    between atoms: _20  and  _22
REMARK   11  A    between atoms: _22  and  _23
REMARK   12  A    between atoms: _22  and  _25
REMARK   13  A    between atoms: _25  and  _26
REMARK   14  A    between atoms: _32  and  _34
REMARK   15  A    between atoms: _34  and  _35
REMARK   16  A    between atoms: _34  and  _37
REMARK   17  A    between atoms: _37  and  _38
REMARK   18  A    between atoms: _38  and  _39
REMARK   19  A    between atoms: _39  and  _40
REMARK   20  A    between atoms: _49  and  _51
REMARK   21  A    between atoms: _51  and  _52
REMARK   22  A    between atoms: _51  and  _54
REMARK   23  A    between atoms: _54  and  _55
REMARK   24  A    between atoms: _55  and  _56
REMARK   25  A    between atoms: _61  and  _63
REMARK   26  A    between atoms: _63  and  _64
REMARK   27  A    between atoms: _63  and  _66
REMARK   28  A    between atoms: _66  and  _67
REMARK   29  A    between atoms: _72  and  _74
REMARK   30  A    between atoms: _74  and  _75
REMARK   31  A    between atoms: _74  and  _77
REMARK   32  A    between atoms: _77  and  _78
REMARK   33  A    between atoms: _81  and  _83
REMARK   34  A    between atoms: _83  and  _84
REMARK   35  A    between atoms: _83  and  _86
REMARK   36  A    between atoms: _86  and  _87
REMARK   37  A    between atoms: _87  and  _88
REMARK   38  A    between atoms: _88  and  _89
REMARK   39  A    between atoms: _98  and  _100
REMARK   40  A    between atoms: _100  and  _101
REMARK   41  A    between atoms: _100  and  _103
REMARK   42  A    between atoms: _103  and  _104
REMARK   43  A    between atoms: _104  and  _105
REMARK   44  A    between atoms: _105  and  _106
REMARK   45  A    between atoms: _106  and  _107
REMARK   46  A    between atoms: _111  and  _113
REMARK   47  A    between atoms: _113  and  _114
REMARK   48  A    between atoms: _113  and  _116
REMARK   49  A    between atoms: _119  and  _121
REMARK   50  A    between atoms: _121  and  _122
REMARK   51  A    between atoms: _121  and  _124
REMARK   52  A    between atoms: _124  and  _125
REMARK   53  A    between atoms: _130  and  _132
REMARK   54  A    between atoms: _132  and  _133
REMARK   55  A    between atoms: _132  and  _135
REMARK   56  A    between atoms: _135  and  _136
REMARK   57  A    between atoms: _139  and  _141
REMARK   58  A    between atoms: _141  and  _142
REMARK   59  A    between atoms: _145  and  _147
REMARK   60  A    between atoms: _154  and  _157
REMARK   61  A    between atoms: _157  and  _158
REMARK   62  A    between atoms: _158  and  _159
REMARK   63  A    between atoms: _159  and  _160
REMARK   64  A    between atoms: _160  and  _161
REMARK   65  A    between atoms: _167  and  _170
REMARK   66  A    between atoms: _170  and  _171
REMARK   67  A    between atoms: _183  and  _186
REMARK   68  A    between atoms: _186  and  _187
REMARK   69  A    between atoms: _187  and  _188
REMARK   70  A    between atoms: _195  and  _198
REMARK   71  A    between atoms: _198  and  _199
REMARK   72  A    between atoms: _204  and  _207
REMARK   73  A    between atoms: _207  and  _208
REMARK   74  A    between atoms: _215  and  _216
REMARK   75  A    between atoms: _220  and  _222
REMARK   76  A    between atoms: _222  and  _223
REMARK   77  A    between atoms: _222  and  _225
REMARK   78  A    between atoms: _225  and  _226
REMARK   79  A    between atoms: _231  and  _232
REMARK   80  A    between atoms: _234  and  _236
REMARK   81  A    between atoms: _236  and  _237
REMARK   82  A    between atoms: _236  and  _239
REMARK   83  A    between atoms: _242  and  _244
REMARK   84  A    between atoms: _244  and  _245
REMARK   85  A    between atoms: _248  and  _250
REMARK   86  A    between atoms: _250  and  _251
REMARK   87  A    between atoms: _250  and  _253
REMARK   88  A    between atoms: _255  and  _257
REMARK   89  A    between atoms: _257  and  _258
REMARK   90  A    between atoms: _257  and  _260
REMARK   91  A    between atoms: _260  and  _261
REMARK   92  A    between atoms: _261  and  _262
REMARK   93  A    between atoms: _266  and  _267
REMARK   94  A    between atoms: _272  and  _274
REMARK   95  A    between atoms: _274  and  _275
REMARK   96  A    between atoms: _274  and  _277
REMARK   97  A    between atoms: _280  and  _282
REMARK   98  A    between atoms: _282  and  _283
REMARK   99  A    between atoms: _282  and  _285
REMARK  100  A    between atoms: _285  and  _286
REMARK  101  A    between atoms: _291  and  _293
REMARK  102  A    between atoms: _293  and  _294
REMARK  103  A    between atoms: _293  and  _296
REMARK  104  A    between atoms: _296  and  _297
REMARK  105  A    between atoms: _303  and  _305
REMARK  106  A    between atoms: _305  and  _306
REMARK  107  A    between atoms: _305  and  _308
REMARK  108  A    between atoms: _308  and  _309
REMARK  109  A    between atoms: _312  and  _314
REMARK  110  A    between atoms: _314  and  _315
REMARK                            x       y       z     vdW  Elec       q    Type
REMARK                         _______ _______ _______ _____ _____    ______ ____
ROOT
ATOM      1  CA  ALA A   1      33.325  12.159  14.899  0.00  0.00    +0.133 C 
ATOM      2  CB  ALA A   1      33.648  11.824  16.355  0.00  0.00    +0.027 C 
ENDROOT
BRANCH   1   3
ATOM      3  N   ALA A   1      33.138  13.597  14.747  0.00  0.00    -0.239 NA
ATOM      4  H   ALA A   1      33.187  14.204  15.590  0.00  0.00    +0.142 HD
ENDBRANCH   1   3
BRANCH   1   5
ATOM      5  C   ALA A   1      32.058  11.435  14.464  0.00  0.00    +0.224 C 
ATOM      6  O   ALA A   1      32.118  10.341  13.895  0.00  0.00    -0.287 OA
ENDBRANCH   1   5
TORSDOF 2
REMARK  Name = ../refined-set-2016/1o0f/1o0f_pocket.pdb
REMARK  110 active torsions:
REMARK  status: ('A' for Active; 'I' for Inactive)
REMARK    1  A    between atoms: _1  and  _3
REMARK    2  A    between atoms: _3  and  _4
REMARK    3  A    between atoms: _7  and  _9
REMARK    4  A    between atoms: _9  and  _10
REMARK    5  A    between atoms: _9  and  _12
REMARK    6  A    between atoms: _12  and  _13
REMARK    7  A    between atoms: _13  and  _14
REMARK    8  A    between atoms: _14  and  _15
REMARK    9  A    between atoms: _15  and  _16
REMARK   10  A    between atoms: _20  and  _22
REMARK   11  A    between atoms: _22  and  _23
REMARK   12  A    between atoms: _22  and  _25
REMARK   13  A    between atoms: _25  and  _26
REMARK   14  A    between atoms: _32  and  _34
REMARK   15  A    between atoms: _34  and  _35
REMARK   16  A    between atoms: _34  and  _37
REMARK   17  A    between atoms: _37  and  _38
REMARK   18  A    between atoms: _38  and  _39
REMARK   19  A    between atoms: _39  and  _40
REMARK   20  A    between atoms: _49  and  _51
REMARK   21  A    between atoms: _51  and  _52
REMARK   22  A    between atoms: _51  and  _54
REMARK   23  A    between atoms: _54  and  _55
REMARK   24  A    between atoms: _55  and  _56
REMARK   25  A    between atoms: _61  and  _63
REMARK   26  A    between atoms: _63  and  _64
REMARK   27  A    between atoms: _63  and  _66
REMARK   28  A    between atoms: _66  and  _67
REMARK   29  A    between atoms: _72  and  _74
REMARK   30  A    between atoms: _74  and  _75
REMARK   31  A    between atoms: _74  and  _77
REMARK   32  A    between atoms: _77  and  _78
REMARK   33  A    between atoms: _81  and  _83
REMARK   34  A    between atoms: _83  and  _84
REMARK   35  A    between atoms: _83  and  _86
REMARK   36  A    between atoms: _86  and  _87
REMARK   37  A    between atoms: _87  and  _88
REMARK   38  A    between atoms: _88  and  _89
REMARK   39  A    between atoms: _98  and  _100
REMARK   40  A    between atoms: _100  and  _101
REMARK   41  A    between atoms: _100  and  _103
REMARK   42  A    between atoms: _103  and  _104
REMARK   43  A    between atoms: _104  and  _105
REMARK   44  A    between atoms: _105  and  _106
REMARK   45  A    between atoms: _106  and  _107
REMARK   46  A    between atoms: _111  and  _113
REMARK   47  A    between atoms: _113  and  _114
REMARK   48  A    between atoms: _113  and  _116
REMARK   49  A    between atoms: _119  and  _121
REMARK   50  A    between atoms: _121  and  _122
REMARK   51  A    between atoms: _121  and  _124
REMARK   52  A    between atoms: _124  and  _125
REMARK   53  A    between atoms: _130  and  _132
REMARK   54  A    between atoms: _132  and  _133
REMARK   55  A    between atoms: _132  and  _135
REMARK   56  A    between atoms: _135  and  _136
REMARK   57  A    between atoms: _139  and  _141
REMARK   58  A    between atoms: _141  and  _142
REMARK   59  A    between atoms: _145  and  _147
REMARK   60  A    between atoms: _154  and  _157
REMARK   61  A    between atoms: _157  and  _158
REMARK   62  A    between atoms: _158  and  _159
REMARK   63  A    between atoms: _159  and  _160
REMARK   64  A    between atoms: _160  and  _161
REMARK   65  A    between atoms: _167  and  _170
REMARK   66  A    between atoms: _170  and  _171
REMARK   67  A    between atoms: _183  and  _186
REMARK   68  A    between atoms: _186  and  _187
REMARK   69  A    between atoms: _187  and  _188
REMARK   70  A    between atoms: _195  and  _198
REMARK   71  A    between atoms: _198  and  _199
REMARK   72  A    between atoms: _204  and  _207
REMARK   73  A    between atoms: _207  and  _208
REMARK   74  A    between atoms: _215  and  _216
REMARK   75  A    between atoms: _220  and  _222
REMARK   76  A    between atoms: _222  and  _223
REMARK   77  A    between atoms: _222  and  _225
REMARK   78  A    between atoms: _225  and  _226
REMARK   79  A    between atoms: _231  and  _232
REMARK   80  A    between atoms: _234  and  _236
REMARK   81  A    between atoms: _236  and  _237
REMARK   82  A    between atoms: _236  and  _239
REMARK   83  A    between atoms: _242  and  _244
REMARK   84  A    between atoms: _244  and  _245
REMARK   85  A    between atoms: _248  and  _250
REMARK   86  A    between atoms: _250  and  _251
REMARK   87  A    between atoms: _250  and  _253
REMARK   88  A    between atoms: _255  and  _257
REMARK   89  A    between atoms: _257  and  _258
REMARK   90  A    between atoms: _257  and  _260
REMARK   91  A    between atoms: _260  and  _261
REMARK   92  A    between atoms: _261  and  _262
REMARK   93  A    between atoms: _266  and  _267
REMARK   94  A    between atoms: _272  and  _274
REMARK   95  A    between atoms: _274  and  _275
REMARK   96  A    between atoms: _274  and  _277
REMARK   97  A    between atoms: _280  and  _282
REMARK   98  A    between atoms: _282  and  _283
REMARK   99  A    between atoms: _282  and  _285
REMARK  100  A    between atoms: _285  and  _286
REMARK  101  A    between atoms: _291  and  _293
REMARK  102  A    between atoms: _293  and  _294
REMARK  103  A    between atoms: _293  and  _296
REMARK  104  A    between atoms: _296  and  _297
REMARK  105  A    between atoms: _303  and  _305
REMARK  106  A    between atoms: _305  and  _306
REMARK  107  A    between atoms: _305  and  _308
REMARK  108  A    between atoms: _308  and  _309
REMARK  109  A    between atoms: _312  and  _314
REMARK  110  A    between atoms: _314  and  _315
REMARK                            x       y       z     vdW  Elec       q    Type
REMARK                         _______ _______ _______ _____ _____    ______ ____
ROOT
ATOM      1  C   LYS A   1      32.376   9.010  10.330  0.00  0.00    +0.238 C 
ATOM      2  N   PHE A   2      31.632   8.729  11.399  0.00  0.00    -0.298 N 
ATOM      3  H   PHE A   2      31.482   9.453  12.130  0.00  0.00    +0.150 HD
ATOM      4  O   LYS A   1      32.599   8.183   9.441  0.00  0.00    -0.274 OA
ENDROOT
BRANCH   1   5
ATOM      5  CA  LYS A   1      32.954  10.421  10.245  0.00  0.00    +0.145 C 
BRANCH   5   6
ATOM      6  N   LYS A   1      31.985  11.393  10.731  0.00  0.00    -0.238 NA
ATOM      7  H   LYS A   1      32.212  11.961  11.572  0.00  0.00    +0.142 HD
ENDBRANCH   5   6
BRANCH   5   8
ATOM      8  CB  LYS A   1      34.247  10.503  11.058  0.00  0.00    +0.026 C 
BRANCH   8   9
ATOM      9  CG  LYS A   1      35.334   9.563  10.574  0.00  0.00    -0.000 C 
BRANCH   9  10
ATOM     10  CD  LYS A   1      36.653   9.844  11.267  0.00  0.00    -0.024 C 
BRANCH  10  11
ATOM     11  CE  LYS A   1      37.770   9.015  10.656  0.00  0.00    -0.086 C 
BRANCH  11  12
ATOM     12  NZ  LYS A   1      39.097   9.329  11.255  0.00  0.00    +0.380 N 
ATOM     13  HZ1 LYS A   1      39.070   9.133  12.276  0.00  0.00    -0.089 HD
ATOM     14  HZ2 LYS A   1      39.317  10.333  11.099  0.00  0.00    -0.089 HD
ATOM     15  HZ3 LYS A   1      39.827   8.739  10.807  0.00  0.00    -0.089 HD
ENDBRANCH  11  12
ENDBRANCH  10  11
ENDBRANCH   9  10
ENDBRANCH   8   9
ENDBRANCH   5   8
ENDBRANCH   1   5
BRANCH   2  16
ATOM     16  CA  PHE A   2      31.028   7.413  11.548  0.00  0.00    +0.141 C 
BRANCH  16  17
ATOM     17  C   PHE A   2      30.029   7.169  10.421  0.00  0.00    +0.227 C 
ATOM     18  O   PHE A   2      29.985   6.085   9.845  0.00  0.00    -0.286 OA
ENDBRANCH  16  17
BRANCH  16  19
ATOM     19  CB  PHE A   2      30.330   7.276  12.910  0.00  0.00    +0.054 C 
BRANCH  19  20
ATOM     20  CG  PHE A   2      29.584   5.980  13.076  0.00  0.00    -0.020 A 
ATOM     21  CD2 PHE A   2      30.215   4.866  13.623  0.00  0.00    -0.004 A 
ATOM     22  CE2 PHE A   2      29.550   3.648  13.717  0.00  0.00    -0.000 A 
ATOM     23  CZ  PHE A   2      28.240   3.534  13.264  0.00  0.00    -0.000 A 
ATOM     24  CE1 PHE A   2      27.600   4.641  12.719  0.00  0.00    -0.000 A 
ATOM     25  CD1 PHE A   2      28.271   5.852  12.629  0.00  0.00    -0.004 A 
ENDBRANCH  19  20
ENDBRANCH  16  19
ENDBRANCH   2  16
TORSDOF 11
REMARK  Name = ../refined-set-2016/1o0f/1o0f_pocket.pdb
REMARK  110 active torsions:
REMARK  status: ('A' for Active; 'I' for Inactive)
REMARK    1  A    between atoms: _1  and  _3
REMARK    2  A    between atoms: _3  and  _4
REMARK    3  A    between atoms: _7  and  _9
REMARK    4  A    between atoms: _9  and  _10
REMARK    5  A    between atoms: _9  and  _12
REMARK    6  A    between atoms: _12  and  _13
REMARK    7  A    between atoms: _13  and  _14
REMARK    8  A    between atoms: _14  and  _15
REMARK    9  A    between atoms: _15  and  _16
REMARK   10  A    between atoms: _20  and  _22
REMARK   11  A    between atoms: _22  and  _23
REMARK   12  A    between atoms: _22  and  _25
REMARK   13  A    between atoms: _25  and  _26
REMARK   14  A    between atoms: _32  and  _34
REMARK   15  A    between atoms: _34  and  _35
REMARK   16  A    between atoms: _34  and  _37
REMARK   17  A    between atoms: _37  and  _38
REMARK   18  A    between atoms: _38  and  _39
REMARK   19  A    between atoms: _39  and  _40
REMARK   20  A    between atoms: _49  and  _51
REMARK   21  A    between atoms: _51  and  _52
REMARK   22  A    between atoms: _51  and  _54
REMARK   23  A    between atoms: _54  and  _55
REMARK   24  A    between atoms: _55  and  _56
REMARK   25  A    between atoms: _61  and  _63
REMARK   26  A    between atoms: _63  and  _64
REMARK   27  A    between atoms: _63  and  _66
REMARK   28  A    between atoms: _66  and  _67
REMARK   29  A    between atoms: _72  and  _74
REMARK   30  A    between atoms: _74  and  _75
REMARK   31  A    between atoms: _74  and  _77
REMARK   32  A    between atoms: _77  and  _78
REMARK   33  A    between atoms: _81  and  _83
REMARK   34  A    between atoms: _83  and  _84
REMARK   35  A    between atoms: _83  and  _86
REMARK   36  A    between atoms: _86  and  _87
REMARK   37  A    between atoms: _87  and  _88
REMARK   38  A    between atoms: _88  and  _89
REMARK   39  A    between atoms: _98  and  _100
REMARK   40  A    between atoms: _100  and  _101
REMARK   41  A    between atoms: _100  and  _103
REMARK   42  A    between atoms: _103  and  _104
REMARK   43  A    between atoms: _104  and  _105
REMARK   44  A    between atoms: _105  and  _106
REMARK   45  A    between atoms: _106  and  _107
REMARK   46  A    between atoms: _111  and  _113
REMARK   47  A    between atoms: _113  and  _114
REMARK   48  A    between atoms: _113  and  _116
REMARK   49  A    between atoms: _119  and  _121
REMARK   50  A    between atoms: _121  and  _122
REMARK   51  A    between atoms: _121  and  _124
REMARK   52  A    between atoms: _124  and  _125
REMARK   53  A    between atoms: _130  and  _132
REMARK   54  A    between atoms: _132  and  _133
REMARK   55  A    between atoms: _132  and  _135
REMARK   56  A    between atoms: _135  and  _136
REMARK   57  A    between atoms: _139  and  _141
REMARK   58  A    between atoms: _141  and  _142
REMARK   59  A    between atoms: _145  and  _147
REMARK   60  A    between atoms: _154  and  _157
REMARK   61  A    between atoms: _157  and  _158
REMARK   62  A    between atoms: _158  and  _159
REMARK   63  A    between atoms: _159  and  _160
REMARK   64  A    between atoms: _160  and  _161
REMARK   65  A    between atoms: _167  and  _170
REMARK   66  A    between atoms: _170  and  _171
REMARK   67  A    between atoms: _183  and  _186
REMARK   68  A    between atoms: _186  and  _187
REMARK   69  A    between atoms: _187  and  _188
REMARK   70  A    between atoms: _195  and  _198
REMARK   71  A    between atoms: _198  and  _199
REMARK   72  A    between atoms: _204  and  _207
REMARK   73  A    between atoms: _207  and  _208
REMARK   74  A    between atoms: _215  and  _216
REMARK   75  A    between atoms: _220  and  _222
REMARK   76  A    between atoms: _222  and  _223
REMARK   77  A    between atoms: _222  and  _225
REMARK   78  A    between atoms: _225  and  _226
REMARK   79  A    between atoms: _231  and  _232
REMARK   80  A    between atoms: _234  and  _236
REMARK   81  A    between atoms: _236  and  _237
REMARK   82  A    between atoms: _236  and  _239
REMARK   83  A    between atoms: _242  and  _244
REMARK   84  A    between atoms: _244  and  _245
REMARK   85  A    between atoms: _248  and  _250
REMARK   86  A    between atoms: _250  and  _251
REMARK   87  A    between atoms: _250  and  _253
REMARK   88  A    between atoms: _255  and  _257
REMARK   89  A    between atoms: _257  and  _258
REMARK   90  A    between atoms: _257  and  _260
REMARK   91  A    between atoms: _260  and  _261
REMARK   92  A    between atoms: _261  and  _262
REMARK   93  A    between atoms: _266  and  _267
REMARK   94  A    between atoms: _272  and  _274
REMARK   95  A    between atoms: _274  and  _275
REMARK   96  A    between atoms: _274  and  _277
REMARK   97  A    between atoms: _280  and  _282
REMARK   98  A    between atoms: _282  and  _283
REMARK   99  A    between atoms: _282  and  _285
REMARK  100  A    between atoms: _285  and  _286
REMARK  101  A    between atoms: _291  and  _293
REMARK  102  A    between atoms: _293  and  _294
REMARK  103  A    between atoms: _293  and  _296
REMARK  104  A    between atoms: _296  and  _297
REMARK  105  A    between atoms: _303  and  _305
REMARK  106  A    between atoms: _305  and  _306
REMARK  107  A    between atoms: _305  and  _308
REMARK  108  A    between atoms: _308  and  _309
REMARK  109  A    between atoms: _312  and  _314
REMARK  110  A    between atoms: _314  and  _315
REMARK                            x       y       z     vdW  Elec       q    Type
REMARK                         _______ _______ _______ _____ _____    ______ ____
ROOT
ATOM      1  CA  GLN A   2      32.740   5.304   7.144  0.00  0.00    +0.149 C 
ENDROOT
BRANCH   1   3
ATOM      2  C   ARG A   1      31.449   7.053   6.076  0.00  0.00    +0.238 C 
ATOM      3  N   GLN A   2      32.032   6.578   7.170  0.00  0.00    -0.297 N 
ATOM      4  H   GLN A   2      31.983   7.121   8.056  0.00  0.00    +0.150 HD
ATOM      5  O   ARG A   1      31.445   6.439   5.011  0.00  0.00    -0.274 OA
BRANCH   2   6
ATOM      6  CA  ARG A   1      30.769   8.411   6.199  0.00  0.00    +0.145 C 
BRANCH   6   7
ATOM      7  N   ARG A   1      30.030   8.544   7.453  0.00  0.00    -0.238 NA
ATOM      8  H   ARG A   1      30.360   9.219   8.172  0.00  0.00    +0.142 HD
ENDBRANCH   6   7
BRANCH   6   9
ATOM      9  CB  ARG A   1      31.828   9.510   6.086  0.00  0.00    +0.030 C 
BRANCH   9  10
ATOM     10  CG  ARG A   1      32.790   9.314   4.921  0.00  0.00    +0.045 C 
BRANCH  10  11
ATOM     11  CD  ARG A   1      33.689  10.523   4.727  0.00  0.00    +0.174 C 
BRANCH  11  12
ATOM     12  NE  ARG A   1      34.563  10.790   5.868  0.00  0.00    -0.265 N 
ATOM     13  HE  ARG A   1      34.306  11.577   6.497  0.00  0.00    +0.259 HD
ATOM     14  CZ  ARG A   1      35.662  10.101   6.161  0.00  0.00    +0.342 C 
ATOM     15  NH2 ARG A   1      36.383  10.433   7.223  0.00  0.00    -0.292 N 
ATOM     16 HH21 ARG A   1      36.088  11.230   7.823  0.00  0.00    +0.255 HD
ATOM     17 HH22 ARG A   1      37.243   9.897   7.456  0.00  0.00    +0.255 HD
ATOM     18  NH1 ARG A   1      36.043   9.085   5.394  0.00  0.00    -0.292 N 
ATOM     19 HH11 ARG A   1      36.904   8.550   5.629  0.00  0.00    +0.255 HD
ATOM     20 HH12 ARG A   1      35.481   8.824   4.559  0.00  0.00    +0.255 HD
ENDBRANCH  11  12
ENDBRANCH  10  11
ENDBRANCH   9  10
ENDBRANCH   6   9
ENDBRANCH   2   6
ENDBRANCH   1   3
BRANCH   1  21
ATOM     21  C   GLN A   2      31.884   4.062   7.287  0.00  0.00    +0.241 C 
ATOM     22  N   HIS A   3      30.762   4.178   7.992  0.00  0.00    -0.298 N 
ATOM     23  H   HIS A   3      30.464   5.109   8.346  0.00  0.00    +0.150 HD
ATOM     24  O   GLN A   2      32.237   3.006   6.765  0.00  0.00    -0.273 OA
BRANCH  22  25
ATOM     25  CA  HIS A   3      29.952   3.002   8.267  0.00  0.00    +0.143 C 
BRANCH  25  26
ATOM     26  C   HIS A   3      28.489   2.954   7.868  0.00  0.00    +0.227 C 
ATOM     27  O   HIS A   3      27.874   1.900   7.971  0.00  0.00    -0.286 OA
ENDBRANCH  25  26
BRANCH  25  28
ATOM     28  CB  HIS A   3      30.048   2.698   9.760  0.00  0.00    +0.075 C 
BRANCH  28  29
ATOM     29  CG  HIS A   3      31.452   2.586  10.259  0.00  0.00    +0.082 A 
ATOM     30  CD2 HIS A   3      32.164   3.371  11.102  0.00  0.00    +0.115 A 
ATOM     31  NE2 HIS A   3      33.414   2.813  11.214  0.00  0.00    -0.221 NA
ATOM     32  CE1 HIS A   3      33.469   1.726  10.466  0.00  0.00    +0.199 A 
ATOM     33  ND1 HIS A   3      32.297   1.567   9.878  0.00  0.00    -0.227 NA
ENDBRANCH  28  29
ENDBRANCH  25  28
ENDBRANCH  22  25
ENDBRANCH   1  21
BRANCH   1  34
ATOM     34  CB  GLN A   2      33.776   5.229   8.263  0.00  0.00    +0.039 C 
BRANCH  34  35
ATOM     35  CG  GLN A   2      34.870   6.255   8.249  0.00  0.00    +0.087 C 
BRANCH  35  36
ATOM     36  CD  GLN A   2      36.015   5.817   9.133  0.00  0.00    +0.219 C 
ATOM     37  NE2 GLN A   2      35.836   5.949  10.441  0.00  0.00    -0.329 N 
ATOM     38 HE21 GLN A   2      36.578   5.639  11.101  0.00  0.00    +0.145 HD
ATOM     39 HE22 GLN A   2      34.954   6.362  10.806  0.00  0.00    +0.145 HD
ATOM     40  OE1 GLN A   2      37.037   5.336   8.649  0.00  0.00    -0.275 OA
ENDBRANCH  35  36
ENDBRANCH  34  35
ENDBRANCH   1  34
TORSDOF 15
REMARK  Name = ../refined-set-2016/1o0f/1o0f_pocket.pdb
REMARK  110 active torsions:
REMARK  status: ('A' for Active; 'I' for Inactive)
REMARK    1  A    between atoms: _1  and  _3
REMARK    2  A    between atoms: _3  and  _4
REMARK    3  A    between atoms: _7  and  _9
REMARK    4  A    between atoms: _9  and  _10
REMARK    5  A    between atoms: _9  and  _12
REMARK    6  A    between atoms: _12  and  _13
REMARK    7  A    between atoms: _13  and  _14
REMARK    8  A    between atoms: _14  and  _15
REMARK    9  A    between atoms: _15  and  _16
REMARK   10  A    between atoms: _20  and  _22
REMARK   11  A    between atoms: _22  and  _23
REMARK   12  A    between atoms: _22  and  _25
REMARK   13  A    between atoms: _25  and  _26
REMARK   14  A    between atoms: _32  and  _34
REMARK   15  A    between atoms: _34  and  _35
REMARK   16  A    between atoms: _34  and  _37
REMARK   17  A    between atoms: _37  and  _38
REMARK   18  A    between atoms: _38  and  _39
REMARK   19  A    between atoms: _39  and  _40
REMARK   20  A    between atoms: _49  and  _51
REMARK   21  A    between atoms: _51  and  _52
REMARK   22  A    between atoms: _51  and  _54
REMARK   23  A    between atoms: _54  and  _55
REMARK   24  A    between atoms: _55  and  _56
REMARK   25  A    between atoms: _61  and  _63
REMARK   26  A    between atoms: _63  and  _64
REMARK   27  A    between atoms: _63  and  _66
REMARK   28  A    between atoms: _66  and  _67
REMARK   29  A    between atoms: _72  and  _74
REMARK   30  A    between atoms: _74  and  _75
REMARK   31  A    between atoms: _74  and  _77
REMARK   32  A    between atoms: _77  and  _78
REMARK   33  A    between atoms: _81  and  _83
REMARK   34  A    between atoms: _83  and  _84
REMARK   35  A    between atoms: _83  and  _86
REMARK   36  A    between atoms: _86  and  _87
REMARK   37  A    between atoms: _87  and  _88
REMARK   38  A    between atoms: _88  and  _89
REMARK   39  A    between atoms: _98  and  _100
REMARK   40  A    between atoms: _100  and  _101
REMARK   41  A    between atoms: _100  and  _103
REMARK   42  A    between atoms: _103  and  _104
REMARK   43  A    between atoms: _104  and  _105
REMARK   44  A    between atoms: _105  and  _106
REMARK   45  A    between atoms: _106  and  _107
REMARK   46  A    between atoms: _111  and  _113
REMARK   47  A    between atoms: _113  and  _114
REMARK   48  A    between atoms: _113  and  _116
REMARK   49  A    between atoms: _119  and  _121
REMARK   50  A    between atoms: _121  and  _122
REMARK   51  A    between atoms: _121  and  _124
REMARK   52  A    between atoms: _124  and  _125
REMARK   53  A    between atoms: _130  and  _132
REMARK   54  A    between atoms: _132  and  _133
REMARK   55  A    between atoms: _132  and  _135
REMARK   56  A    between atoms: _135  and  _136
REMARK   57  A    between atoms: _139  and  _141
REMARK   58  A    between atoms: _141  and  _142
REMARK   59  A    between atoms: _145  and  _147
REMARK   60  A    between atoms: _154  and  _157
REMARK   61  A    between atoms: _157  and  _158
REMARK   62  A    between atoms: _158  and  _159
REMARK   63  A    between atoms: _159  and  _160
REMARK   64  A    between atoms: _160  and  _161
REMARK   65  A    between atoms: _167  and  _170
REMARK   66  A    between atoms: _170  and  _171
REMARK   67  A    between atoms: _183  and  _186
REMARK   68  A    between atoms: _186  and  _187
REMARK   69  A    between atoms: _187  and  _188
REMARK   70  A    between atoms: _195  and  _198
REMARK   71  A    between atoms: _198  and  _199
REMARK   72  A    between atoms: _204  and  _207
REMARK   73  A    between atoms: _207  and  _208
REMARK   74  A    between atoms: _215  and  _216
REMARK   75  A    between atoms: _220  and  _222
REMARK   76  A    between atoms: _222  and  _223
REMARK   77  A    between atoms: _222  and  _225
REMARK   78  A    between atoms: _225  and  _226
REMARK   79  A    between atoms: _231  and  _232
REMARK   80  A    between atoms: _234  and  _236
REMARK   81  A    between atoms: _236  and  _237
REMARK   82  A    between atoms: _236  and  _239
REMARK   83  A    between atoms: _242  and  _244
REMARK   84  A    between atoms: _244  and  _245
REMARK   85  A    between atoms: _248  and  _250
REMARK   86  A    between atoms: _250  and  _251
REMARK   87  A    between atoms: _250  and  _253
REMARK   88  A    between atoms: _255  and  _257
REMARK   89  A    between atoms: _257  and  _258
REMARK   90  A    between atoms: _257  and  _260
REMARK   91  A    between atoms: _260  and  _261
REMARK   92  A    between atoms: _261  and  _262
REMARK   93  A    between atoms: _266  and  _267
REMARK   94  A    between atoms: _272  and  _274
REMARK   95  A    between atoms: _274  and  _275
REMARK   96  A    between atoms: _274  and  _277
REMARK   97  A    between atoms: _280  and  _282
REMARK   98  A    between atoms: _282  and  _283
REMARK   99  A    between atoms: _282  and  _285
REMARK  100  A    between atoms: _285  and  _286
REMARK  101  A    between atoms: _291  and  _293
REMARK  102  A    between atoms: _293  and  _294
REMARK  103  A    between atoms: _293  and  _296
REMARK  104  A    between atoms: _296  and  _297
REMARK  105  A    between atoms: _303  and  _305
REMARK  106  A    between atoms: _305  and  _306
REMARK  107  A    between atoms: _305  and  _308
REMARK  108  A    between atoms: _308  and  _309
REMARK  109  A    between atoms: _312  and  _314
REMARK  110  A    between atoms: _314  and  _315
REMARK                            x       y       z     vdW  Elec       q    Type
REMARK                         _______ _______ _______ _____ _____    ______ ____
ROOT
ATOM      1  CA  LEU A   1      38.869   5.211   3.115  0.00  0.00    +0.133 C 
ENDROOT
BRANCH   1   2
ATOM      2  N   LEU A   1      38.175   6.038   2.140  0.00  0.00    -0.239 NA
ATOM      3  H   LEU A   1      37.586   5.589   1.410  0.00  0.00    +0.142 HD
ENDBRANCH   1   2
BRANCH   1   4
ATOM      4  C   LEU A   1      40.106   4.573   2.492  0.00  0.00    +0.224 C 
ATOM      5  O   LEU A   1      40.682   3.638   3.045  0.00  0.00    -0.287 OA
ENDBRANCH   1   4
BRANCH   1   6
ATOM      6  CB  LEU A   1      37.930   4.130   3.654  0.00  0.00    +0.025 C 
BRANCH   6   7
ATOM      7  CG  LEU A   1      36.615   4.661   4.233  0.00  0.00    +0.002 C 
ATOM      8  CD2 LEU A   1      36.905   5.713   5.298  0.00  0.00    +0.000 C 
ATOM      9  CD1 LEU A   1      35.815   3.511   4.821  0.00  0.00    +0.000 C 
ENDBRANCH   6   7
ENDBRANCH   1   6
TORSDOF 4
REMARK  Name = ../refined-set-2016/1o0f/1o0f_pocket.pdb
REMARK  110 active torsions:
REMARK  status: ('A' for Active; 'I' for Inactive)
REMARK    1  A    between atoms: _1  and  _3
REMARK    2  A    between atoms: _3  and  _4
REMARK    3  A    between atoms: _7  and  _9
REMARK    4  A    between atoms: _9  and  _10
REMARK    5  A    between atoms: _9  and  _12
REMARK    6  A    between atoms: _12  and  _13
REMARK    7  A    between atoms: _13  and  _14
REMARK    8  A    between atoms: _14  and  _15
REMARK    9  A    between atoms: _15  and  _16
REMARK   10  A    between atoms: _20  and  _22
REMARK   11  A    between atoms: _22  and  _23
REMARK   12  A    between atoms: _22  and  _25
REMARK   13  A    between atoms: _25  and  _26
REMARK   14  A    between atoms: _32  and  _34
REMARK   15  A    between atoms: _34  and  _35
REMARK   16  A    between atoms: _34  and  _37
REMARK   17  A    between atoms: _37  and  _38
REMARK   18  A    between atoms: _38  and  _39
REMARK   19  A    between atoms: _39  and  _40
REMARK   20  A    between atoms: _49  and  _51
REMARK   21  A    between atoms: _51  and  _52
REMARK   22  A    between atoms: _51  and  _54
REMARK   23  A    between atoms: _54  and  _55
REMARK   24  A    between atoms: _55  and  _56
REMARK   25  A    between atoms: _61  and  _63
REMARK   26  A    between atoms: _63  and  _64
REMARK   27  A    between atoms: _63  and  _66
REMARK   28  A    between atoms: _66  and  _67
REMARK   29  A    between atoms: _72  and  _74
REMARK   30  A    between atoms: _74  and  _75
REMARK   31  A    between atoms: _74  and  _77
REMARK   32  A    between atoms: _77  and  _78
REMARK   33  A    between atoms: _81  and  _83
REMARK   34  A    between atoms: _83  and  _84
REMARK   35  A    between atoms: _83  and  _86
REMARK   36  A    between atoms: _86  and  _87
REMARK   37  A    between atoms: _87  and  _88
REMARK   38  A    between atoms: _88  and  _89
REMARK   39  A    between atoms: _98  and  _100
REMARK   40  A    between atoms: _100  and  _101
REMARK   41  A    between atoms: _100  and  _103
REMARK   42  A    between atoms: _103  and  _104
REMARK   43  A    between atoms: _104  and  _105
REMARK   44  A    between atoms: _105  and  _106
REMARK   45  A    between atoms: _106  and  _107
REMARK   46  A    between atoms: _111  and  _113
REMARK   47  A    between atoms: _113  and  _114
REMARK   48  A    between atoms: _113  and  _116
REMARK   49  A    between atoms: _119  and  _121
REMARK   50  A    between atoms: _121  and  _122
REMARK   51  A    between atoms: _121  and  _124
REMARK   52  A    between atoms: _124  and  _125
REMARK   53  A    between atoms: _130  and  _132
REMARK   54  A    between atoms: _132  and  _133
REMARK   55  A    between atoms: _132  and  _135
REMARK   56  A    between atoms: _135  and  _136
REMARK   57  A    between atoms: _139  and  _141
REMARK   58  A    between atoms: _141  and  _142
REMARK   59  A    between atoms: _145  and  _147
REMARK   60  A    between atoms: _154  and  _157
REMARK   61  A    between atoms: _157  and  _158
REMARK   62  A    between atoms: _158  and  _159
REMARK   63  A    between atoms: _159  and  _160
REMARK   64  A    between atoms: _160  and  _161
REMARK   65  A    between atoms: _167  and  _170
REMARK   66  A    between atoms: _170  and  _171
REMARK   67  A    between atoms: _183  and  _186
REMARK   68  A    between atoms: _186  and  _187
REMARK   69  A    between atoms: _187  and  _188
REMARK   70  A    between atoms: _195  and  _198
REMARK   71  A    between atoms: _198  and  _199
REMARK   72  A    between atoms: _204  and  _207
REMARK   73  A    between atoms: _207  and  _208
REMARK   74  A    between atoms: _215  and  _216
REMARK   75  A    between atoms: _220  and  _222
REMARK   76  A    between atoms: _222  and  _223
REMARK   77  A    between atoms: _222  and  _225
REMARK   78  A    between atoms: _225  and  _226
REMARK   79  A    between atoms: _231  and  _232
REMARK   80  A    between atoms: _234  and  _236
REMARK   81  A    between atoms: _236  and  _237
REMARK   82  A    between atoms: _236  and  _239
REMARK   83  A    between atoms: _242  and  _244
REMARK   84  A    between atoms: _244  and  _245
REMARK   85  A    between atoms: _248  and  _250
REMARK   86  A    between atoms: _250  and  _251
REMARK   87  A    between atoms: _250  and  _253
REMARK   88  A    between atoms: _255  and  _257
REMARK   89  A    between atoms: _257  and  _258
REMARK   90  A    between atoms: _257  and  _260
REMARK   91  A    between atoms: _260  and  _261
REMARK   92  A    between atoms: _261  and  _262
REMARK   93  A    between atoms: _266  and  _267
REMARK   94  A    between atoms: _272  and  _274
REMARK   95  A    between atoms: _274  and  _275
REMARK   96  A    between atoms: _274  and  _277
REMARK   97  A    between atoms: _280  and  _282
REMARK   98  A    between atoms: _282  and  _283
REMARK   99  A    between atoms: _282  and  _285
REMARK  100  A    between atoms: _285  and  _286
REMARK  101  A    between atoms: _291  and  _293
REMARK  102  A    between atoms: _293  and  _294
REMARK  103  A    between atoms: _293  and  _296
REMARK  104  A    between atoms: _296  and  _297
REMARK  105  A    between atoms: _303  and  _305
REMARK  106  A    between atoms: _305  and  _306
REMARK  107  A    between atoms: _305  and  _308
REMARK  108  A    between atoms: _308  and  _309
REMARK  109  A    between atoms: _312  and  _314
REMARK  110  A    between atoms: _314  and  _315
REMARK                            x       y       z     vdW  Elec       q    Type
REMARK                         _______ _______ _______ _____ _____    ______ ____
ROOT
ATOM      1  NE  ARG A   1      45.708   2.772   7.240  0.00  0.00    -0.265 N 
ATOM      2  CZ  ARG A   1      45.691   1.859   8.206  0.00  0.00    +0.342 C 
ATOM      3  NH2 ARG A   1      44.810   1.956   9.194  0.00  0.00    -0.292 N 
ATOM      4 HH21 ARG A   1      44.796   1.242   9.950  0.00  0.00    +0.255 HD
ATOM      5 HH22 ARG A   1      44.134   2.746   9.212  0.00  0.00    +0.255 HD
ATOM      6  NH1 ARG A   1      46.549   0.847   8.183  0.00  0.00    -0.292 N 
ATOM      7 HH11 ARG A   1      46.533   0.134   8.940  0.00  0.00    +0.255 HD
ATOM      8 HH12 ARG A   1      47.237   0.766   7.408  0.00  0.00    +0.255 HD
ATOM      9  HE  ARG A   1      45.015   3.546   7.292  0.00  0.00    +0.259 HD
ENDROOT
BRANCH   1  10
ATOM     10  CD  ARG A   1      46.634   2.761   6.111  0.00  0.00    +0.174 C 
BRANCH  10  11
ATOM     11  CG  ARG A   1      46.217   3.762   5.050  0.00  0.00    +0.045 C 
BRANCH  11  12
ATOM     12  CB  ARG A   1      47.108   3.695   3.823  0.00  0.00    +0.029 C 
BRANCH  12  13
ATOM     13  CA  ARG A   1      46.396   4.122   2.540  0.00  0.00    +0.133 C 
BRANCH  13  14
ATOM     14  N   ARG A   1      46.005   5.525   2.602  0.00  0.00    -0.239 NA
ATOM     15  H   ARG A   1      45.007   5.757   2.779  0.00  0.00    +0.142 HD
ENDBRANCH  13  14
BRANCH  13  16
ATOM     16  C   ARG A   1      45.120   3.309   2.397  0.00  0.00    +0.224 C 
ATOM     17  O   ARG A   1      44.025   3.868   2.360  0.00  0.00    -0.287 OA
ENDBRANCH  13  16
ENDBRANCH  12  13
ENDBRANCH  11  12
ENDBRANCH  10  11
ENDBRANCH   1  10
TORSDOF 6
REMARK  Name = ../refined-set-2016/1o0f/1o0f_pocket.pdb
REMARK  110 active torsions:
REMARK  status: ('A' for Active; 'I' for Inactive)
REMARK    1  A    between atoms: _1  and  _3
REMARK    2  A    between atoms: _3  and  _4
REMARK    3  A    between atoms: _7  and  _9
REMARK    4  A    between atoms: _9  and  _10
REMARK    5  A    between atoms: _9  and  _12
REMARK    6  A    between atoms: _12  and  _13
REMARK    7  A    between atoms: _13  and  _14
REMARK    8  A    between atoms: _14  and  _15
REMARK    9  A    between atoms: _15  and  _16
REMARK   10  A    between atoms: _20  and  _22
REMARK   11  A    between atoms: _22  and  _23
REMARK   12  A    between atoms: _22  and  _25
REMARK   13  A    between atoms: _25  and  _26
REMARK   14  A    between atoms: _32  and  _34
REMARK   15  A    between atoms: _34  and  _35
REMARK   16  A    between atoms: _34  and  _37
REMARK   17  A    between atoms: _37  and  _38
REMARK   18  A    between atoms: _38  and  _39
REMARK   19  A    between atoms: _39  and  _40
REMARK   20  A    between atoms: _49  and  _51
REMARK   21  A    between atoms: _51  and  _52
REMARK   22  A    between atoms: _51  and  _54
REMARK   23  A    between atoms: _54  and  _55
REMARK   24  A    between atoms: _55  and  _56
REMARK   25  A    between atoms: _61  and  _63
REMARK   26  A    between atoms: _63  and  _64
REMARK   27  A    between atoms: _63  and  _66
REMARK   28  A    between atoms: _66  and  _67
REMARK   29  A    between atoms: _72  and  _74
REMARK   30  A    between atoms: _74  and  _75
REMARK   31  A    between atoms: _74  and  _77
REMARK   32  A    between atoms: _77  and  _78
REMARK   33  A    between atoms: _81  and  _83
REMARK   34  A    between atoms: _83  and  _84
REMARK   35  A    between atoms: _83  and  _86
REMARK   36  A    between atoms: _86  and  _87
REMARK   37  A    between atoms: _87  and  _88
REMARK   38  A    between atoms: _88  and  _89
REMARK   39  A    between atoms: _98  and  _100
REMARK   40  A    between atoms: _100  and  _101
REMARK   41  A    between atoms: _100  and  _103
REMARK   42  A    between atoms: _103  and  _104
REMARK   43  A    between atoms: _104  and  _105
REMARK   44  A    between atoms: _105  and  _106
REMARK   45  A    between atoms: _106  and  _107
REMARK   46  A    between atoms: _111  and  _113
REMARK   47  A    between atoms: _113  and  _114
REMARK   48  A    between atoms: _113  and  _116
REMARK   49  A    between atoms: _119  and  _121
REMARK   50  A    between atoms: _121  and  _122
REMARK   51  A    between atoms: _121  and  _124
REMARK   52  A    between atoms: _124  and  _125
REMARK   53  A    between atoms: _130  and  _132
REMARK   54  A    between atoms: _132  and  _133
REMARK   55  A    between atoms: _132  and  _135
REMARK   56  A    between atoms: _135  and  _136
REMARK   57  A    between atoms: _139  and  _141
REMARK   58  A    between atoms: _141  and  _142
REMARK   59  A    between atoms: _145  and  _147
REMARK   60  A    between atoms: _154  and  _157
REMARK   61  A    between atoms: _157  and  _158
REMARK   62  A    between atoms: _158  and  _159
REMARK   63  A    between atoms: _159  and  _160
REMARK   64  A    between atoms: _160  and  _161
REMARK   65  A    between atoms: _167  and  _170
REMARK   66  A    between atoms: _170  and  _171
REMARK   67  A    between atoms: _183  and  _186
REMARK   68  A    between atoms: _186  and  _187
REMARK   69  A    between atoms: _187  and  _188
REMARK   70  A    between atoms: _195  and  _198
REMARK   71  A    between atoms: _198  and  _199
REMARK   72  A    between atoms: _204  and  _207
REMARK   73  A    between atoms: _207  and  _208
REMARK   74  A    between atoms: _215  and  _216
REMARK   75  A    between atoms: _220  and  _222
REMARK   76  A    between atoms: _222  and  _223
REMARK   77  A    between atoms: _222  and  _225
REMARK   78  A    between atoms: _225  and  _226
REMARK   79  A    between atoms: _231  and  _232
REMARK   80  A    between atoms: _234  and  _236
REMARK   81  A    between atoms: _236  and  _237
REMARK   82  A    between atoms: _236  and  _239
REMARK   83  A    between atoms: _242  and  _244
REMARK   84  A    between atoms: _244  and  _245
REMARK   85  A    between atoms: _248  and  _250
REMARK   86  A    between atoms: _250  and  _251
REMARK   87  A    between atoms: _250  and  _253
REMARK   88  A    between atoms: _255  and  _257
REMARK   89  A    between atoms: _257  and  _258
REMARK   90  A    between atoms: _257  and  _260
REMARK   91  A    between atoms: _260  and  _261
REMARK   92  A    between atoms: _261  and  _262
REMARK   93  A    between atoms: _266  and  _267
REMARK   94  A    between atoms: _272  and  _274
REMARK   95  A    between atoms: _274  and  _275
REMARK   96  A    between atoms: _274  and  _277
REMARK   97  A    between atoms: _280  and  _282
REMARK   98  A    between atoms: _282  and  _283
REMARK   99  A    between atoms: _282  and  _285
REMARK  100  A    between atoms: _285  and  _286
REMARK  101  A    between atoms: _291  and  _293
REMARK  102  A    between atoms: _293  and  _294
REMARK  103  A    between atoms: _293  and  _296
REMARK  104  A    between atoms: _296  and  _297
REMARK  105  A    between atoms: _303  and  _305
REMARK  106  A    between atoms: _305  and  _306
REMARK  107  A    between atoms: _305  and  _308
REMARK  108  A    between atoms: _308  and  _309
REMARK  109  A    between atoms: _312  and  _314
REMARK  110  A    between atoms: _314  and  _315
REMARK                            x       y       z     vdW  Elec       q    Type
REMARK                         _______ _______ _______ _____ _____    ______ ____
ROOT
ATOM      1  CG  LYS A   1      40.275   1.390   7.156  0.00  0.00    -0.000 C 
ENDROOT
BRANCH   1   2
ATOM      2  CB  LYS A   1      40.666   1.539   5.693  0.00  0.00    +0.025 C 
BRANCH   2   3
ATOM      3  CA  LYS A   1      42.001   0.868   5.368  0.00  0.00    +0.133 C 
BRANCH   3   4
ATOM      4  N   LYS A   1      42.472   1.240   4.037  0.00  0.00    -0.239 NA
ATOM      5  H   LYS A   1      41.906   1.871   3.434  0.00  0.00    +0.142 HD
ENDBRANCH   3   4
BRANCH   3   6
ATOM      6  C   LYS A   1      41.835  -0.652   5.322  0.00  0.00    +0.224 C 
ATOM      7  O   LYS A   1      41.101  -1.177   4.488  0.00  0.00    -0.287 OA
ENDBRANCH   3   6
ENDBRANCH   2   3
ENDBRANCH   1   2
BRANCH   1   8
ATOM      8  CD  LYS A   1      38.955   2.066   7.487  0.00  0.00    -0.024 C 
BRANCH   8   9
ATOM      9  CE  LYS A   1      38.631   1.884   8.967  0.00  0.00    -0.086 C 
BRANCH   9  10
ATOM     10  NZ  LYS A   1      37.334   2.503   9.361  0.00  0.00    +0.380 N 
ATOM     11  HZ1 LYS A   1      37.170   2.346  10.376  0.00  0.00    -0.089 HD
ATOM     12  HZ2 LYS A   1      37.366   3.524   9.168  0.00  0.00    -0.089 HD
ATOM     13  HZ3 LYS A   1      36.564   2.069   8.813  0.00  0.00    -0.089 HD
ENDBRANCH   9  10
ENDBRANCH   8   9
ENDBRANCH   1   8
TORSDOF 7
REMARK  Name = ../refined-set-2016/1o0f/1o0f_pocket.pdb
REMARK  110 active torsions:
REMARK  status: ('A' for Active; 'I' for Inactive)
REMARK    1  A    between atoms: _1  and  _3
REMARK    2  A    between atoms: _3  and  _4
REMARK    3  A    between atoms: _7  and  _9
REMARK    4  A    between atoms: _9  and  _10
REMARK    5  A    between atoms: _9  and  _12
REMARK    6  A    between atoms: _12  and  _13
REMARK    7  A    between atoms: _13  and  _14
REMARK    8  A    between atoms: _14  and  _15
REMARK    9  A    between atoms: _15  and  _16
REMARK   10  A    between atoms: _20  and  _22
REMARK   11  A    between atoms: _22  and  _23
REMARK   12  A    between atoms: _22  and  _25
REMARK   13  A    between atoms: _25  and  _26
REMARK   14  A    between atoms: _32  and  _34
REMARK   15  A    between atoms: _34  and  _35
REMARK   16  A    between atoms: _34  and  _37
REMARK   17  A    between atoms: _37  and  _38
REMARK   18  A    between atoms: _38  and  _39
REMARK   19  A    between atoms: _39  and  _40
REMARK   20  A    between atoms: _49  and  _51
REMARK   21  A    between atoms: _51  and  _52
REMARK   22  A    between atoms: _51  and  _54
REMARK   23  A    between atoms: _54  and  _55
REMARK   24  A    between atoms: _55  and  _56
REMARK   25  A    between atoms: _61  and  _63
REMARK   26  A    between atoms: _63  and  _64
REMARK   27  A    between atoms: _63  and  _66
REMARK   28  A    between atoms: _66  and  _67
REMARK   29  A    between atoms: _72  and  _74
REMARK   30  A    between atoms: _74  and  _75
REMARK   31  A    between atoms: _74  and  _77
REMARK   32  A    between atoms: _77  and  _78
REMARK   33  A    between atoms: _81  and  _83
REMARK   34  A    between atoms: _83  and  _84
REMARK   35  A    between atoms: _83  and  _86
REMARK   36  A    between atoms: _86  and  _87
REMARK   37  A    between atoms: _87  and  _88
REMARK   38  A    between atoms: _88  and  _89
REMARK   39  A    between atoms: _98  and  _100
REMARK   40  A    between atoms: _100  and  _101
REMARK   41  A    between atoms: _100  and  _103
REMARK   42  A    between atoms: _103  and  _104
REMARK   43  A    between atoms: _104  and  _105
REMARK   44  A    between atoms: _105  and  _106
REMARK   45  A    between atoms: _106  and  _107
REMARK   46  A    between atoms: _111  and  _113
REMARK   47  A    between atoms: _113  and  _114
REMARK   48  A    between atoms: _113  and  _116
REMARK   49  A    between atoms: _119  and  _121
REMARK   50  A    between atoms: _121  and  _122
REMARK   51  A    between atoms: _121  and  _124
REMARK   52  A    between atoms: _124  and  _125
REMARK   53  A    between atoms: _130  and  _132
REMARK   54  A    between atoms: _132  and  _133
REMARK   55  A    between atoms: _132  and  _135
REMARK   56  A    between atoms: _135  and  _136
REMARK   57  A    between atoms: _139  and  _141
REMARK   58  A    between atoms: _141  and  _142
REMARK   59  A    between atoms: _145  and  _147
REMARK   60  A    between atoms: _154  and  _157
REMARK   61  A    between atoms: _157  and  _158
REMARK   62  A    between atoms: _158  and  _159
REMARK   63  A    between atoms: _159  and  _160
REMARK   64  A    between atoms: _160  and  _161
REMARK   65  A    between atoms: _167  and  _170
REMARK   66  A    between atoms: _170  and  _171
REMARK   67  A    between atoms: _183  and  _186
REMARK   68  A    between atoms: _186  and  _187
REMARK   69  A    between atoms: _187  and  _188
REMARK   70  A    between atoms: _195  and  _198
REMARK   71  A    between atoms: _198  and  _199
REMARK   72  A    between atoms: _204  and  _207
REMARK   73  A    between atoms: _207  and  _208
REMARK   74  A    between atoms: _215  and  _216
REMARK   75  A    between atoms: _220  and  _222
REMARK   76  A    between atoms: _222  and  _223
REMARK   77  A    between atoms: _222  and  _225
REMARK   78  A    between atoms: _225  and  _226
REMARK   79  A    between atoms: _231  and  _232
REMARK   80  A    between atoms: _234  and  _236
REMARK   81  A    between atoms: _236  and  _237
REMARK   82  A    between atoms: _236  and  _239
REMARK   83  A    between atoms: _242  and  _244
REMARK   84  A    between atoms: _244  and  _245
REMARK   85  A    between atoms: _248  and  _250
REMARK   86  A    between atoms: _250  and  _251
REMARK   87  A    between atoms: _250  and  _253
REMARK   88  A    between atoms: _255  and  _257
REMARK   89  A    between atoms: _257  and  _258
REMARK   90  A    between atoms: _257  and  _260
REMARK   91  A    between atoms: _260  and  _261
REMARK   92  A    between atoms: _261  and  _262
REMARK   93  A    between atoms: _266  and  _267
REMARK   94  A    between atoms: _272  and  _274
REMARK   95  A    between atoms: _274  and  _275
REMARK   96  A    between atoms: _274  and  _277
REMARK   97  A    between atoms: _280  and  _282
REMARK   98  A    between atoms: _282  and  _283
REMARK   99  A    between atoms: _282  and  _285
REMARK  100  A    between atoms: _285  and  _286
REMARK  101  A    between atoms: _291  and  _293
REMARK  102  A    between atoms: _293  and  _294
REMARK  103  A    between atoms: _293  and  _296
REMARK  104  A    between atoms: _296  and  _297
REMARK  105  A    between atoms: _303  and  _305
REMARK  106  A    between atoms: _305  and  _306
REMARK  107  A    between atoms: _305  and  _308
REMARK  108  A    between atoms: _308  and  _309
REMARK  109  A    between atoms: _312  and  _314
REMARK  110  A    between atoms: _314  and  _315
REMARK                            x       y       z     vdW  Elec       q    Type
REMARK                         _______ _______ _______ _____ _____    ______ ____
ROOT
ATOM      1  CA  ASN A   2      35.690  -1.688   7.518  0.00  0.00    +0.158 C 
ENDROOT
BRANCH   1   4
ATOM      2  C   VAL A   1      37.933  -2.532   7.796  0.00  0.00    +0.238 C 
ATOM      3  O   VAL A   1      38.236  -1.580   8.516  0.00  0.00    -0.274 OA
ATOM      4  N   ASN A   2      36.725  -2.673   7.266  0.00  0.00    -0.297 N 
ATOM      5  H   ASN A   2      36.518  -3.496   6.665  0.00  0.00    +0.150 HD
BRANCH   2   6
ATOM      6  CA  VAL A   1      38.943  -3.619   7.465  0.00  0.00    +0.145 C 
BRANCH   6   7
ATOM      7  CB  VAL A   1      38.917  -4.680   8.594  0.00  0.00    +0.025 C 
ATOM      8  CG2 VAL A   1      39.226  -4.026   9.923  0.00  0.00    +0.002 C 
ATOM      9  CG1 VAL A   1      39.922  -5.790   8.300  0.00  0.00    +0.002 C 
ENDBRANCH   6   7
BRANCH   6  10
ATOM     10  N   VAL A   1      40.275  -3.052   7.300  0.00  0.00    -0.238 NA
ATOM     11  H   VAL A   1      40.590  -2.289   7.933  0.00  0.00    +0.142 HD
ENDBRANCH   6  10
ENDBRANCH   2   6
ENDBRANCH   1   4
BRANCH   1  12
ATOM     12  C   ASN A   2      34.328  -2.302   7.285  0.00  0.00    +0.241 C 
ATOM     13  N   THR A   3      33.364  -1.913   8.110  0.00  0.00    -0.296 N 
ATOM     14  H   THR A   3      33.580  -1.222   8.857  0.00  0.00    +0.150 HD
ATOM     15  O   ASN A   2      34.149  -3.103   6.372  0.00  0.00    -0.273 OA
BRANCH  13  16
ATOM     16  CA  THR A   3      32.012  -2.434   7.990  0.00  0.00    +0.164 C 
BRANCH  16  17
ATOM     17  CB  THR A   3      31.579  -3.123   9.298  0.00  0.00    +0.136 C 
ATOM     18  CG2 THR A   3      30.138  -3.602   9.203  0.00  0.00    +0.034 C 
BRANCH  17  19
ATOM     19  OG1 THR A   3      32.443  -4.236   9.556  0.00  0.00    -0.382 OA
ATOM     20  HG1 THR A   3      32.383  -4.880   8.806  0.00  0.00    +0.210 HD
ENDBRANCH  17  19
ENDBRANCH  16  17
BRANCH  16  21
ATOM     21  C   THR A   3      31.004  -1.339   7.661  0.00  0.00    +0.229 C 
ATOM     22  O   THR A   3      31.082  -0.232   8.188  0.00  0.00    -0.286 OA
ENDBRANCH  16  21
ENDBRANCH  13  16
ENDBRANCH   1  12
BRANCH   1  23
ATOM     23  CB  ASN A   2      35.861  -0.493   6.589  0.00  0.00    +0.114 C 
BRANCH  23  24
ATOM     24  CG  ASN A   2      34.951   0.653   6.952  0.00  0.00    +0.222 C 
ATOM     25  OD1 ASN A   2      35.172   1.342   7.951  0.00  0.00    -0.275 OA
ATOM     26  ND2 ASN A   2      33.914   0.866   6.148  0.00  0.00    -0.329 N 
ATOM     27 HD21 ASN A   2      33.249   1.640   6.351  0.00  0.00    +0.145 HD
ATOM     28 HD22 ASN A   2      33.767   0.259   5.316  0.00  0.00    +0.145 HD
ENDBRANCH  23  24
ENDBRANCH   1  23
TORSDOF 11
REMARK  Name = ../refined-set-2016/1o0f/1o0f_pocket.pdb
REMARK  110 active torsions:
REMARK  status: ('A' for Active; 'I' for Inactive)
REMARK    1  A    between atoms: _1  and  _3
REMARK    2  A    between atoms: _3  and  _4
REMARK    3  A    between atoms: _7  and  _9
REMARK    4  A    between atoms: _9  and  _10
REMARK    5  A    between atoms: _9  and  _12
REMARK    6  A    between atoms: _12  and  _13
REMARK    7  A    between atoms: _13  and  _14
REMARK    8  A    between atoms: _14  and  _15
REMARK    9  A    between atoms: _15  and  _16
REMARK   10  A    between atoms: _20  and  _22
REMARK   11  A    between atoms: _22  and  _23
REMARK   12  A    between atoms: _22  and  _25
REMARK   13  A    between atoms: _25  and  _26
REMARK   14  A    between atoms: _32  and  _34
REMARK   15  A    between atoms: _34  and  _35
REMARK   16  A    between atoms: _34  and  _37
REMARK   17  A    between atoms: _37  and  _38
REMARK   18  A    between atoms: _38  and  _39
REMARK   19  A    between atoms: _39  and  _40
REMARK   20  A    between atoms: _49  and  _51
REMARK   21  A    between atoms: _51  and  _52
REMARK   22  A    between atoms: _51  and  _54
REMARK   23  A    between atoms: _54  and  _55
REMARK   24  A    between atoms: _55  and  _56
REMARK   25  A    between atoms: _61  and  _63
REMARK   26  A    between atoms: _63  and  _64
REMARK   27  A    between atoms: _63  and  _66
REMARK   28  A    between atoms: _66  and  _67
REMARK   29  A    between atoms: _72  and  _74
REMARK   30  A    between atoms: _74  and  _75
REMARK   31  A    between atoms: _74  and  _77
REMARK   32  A    between atoms: _77  and  _78
REMARK   33  A    between atoms: _81  and  _83
REMARK   34  A    between atoms: _83  and  _84
REMARK   35  A    between atoms: _83  and  _86
REMARK   36  A    between atoms: _86  and  _87
REMARK   37  A    between atoms: _87  and  _88
REMARK   38  A    between atoms: _88  and  _89
REMARK   39  A    between atoms: _98  and  _100
REMARK   40  A    between atoms: _100  and  _101
REMARK   41  A    between atoms: _100  and  _103
REMARK   42  A    between atoms: _103  and  _104
REMARK   43  A    between atoms: _104  and  _105
REMARK   44  A    between atoms: _105  and  _106
REMARK   45  A    between atoms: _106  and  _107
REMARK   46  A    between atoms: _111  and  _113
REMARK   47  A    between atoms: _113  and  _114
REMARK   48  A    between atoms: _113  and  _116
REMARK   49  A    between atoms: _119  and  _121
REMARK   50  A    between atoms: _121  and  _122
REMARK   51  A    between atoms: _121  and  _124
REMARK   52  A    between atoms: _124  and  _125
REMARK   53  A    between atoms: _130  and  _132
REMARK   54  A    between atoms: _132  and  _133
REMARK   55  A    between atoms: _132  and  _135
REMARK   56  A    between atoms: _135  and  _136
REMARK   57  A    between atoms: _139  and  _141
REMARK   58  A    between atoms: _141  and  _142
REMARK   59  A    between atoms: _145  and  _147
REMARK   60  A    between atoms: _154  and  _157
REMARK   61  A    between atoms: _157  and  _158
REMARK   62  A    between atoms: _158  and  _159
REMARK   63  A    between atoms: _159  and  _160
REMARK   64  A    between atoms: _160  and  _161
REMARK   65  A    between atoms: _167  and  _170
REMARK   66  A    between atoms: _170  and  _171
REMARK   67  A    between atoms: _183  and  _186
REMARK   68  A    between atoms: _186  and  _187
REMARK   69  A    between atoms: _187  and  _188
REMARK   70  A    between atoms: _195  and  _198
REMARK   71  A    between atoms: _198  and  _199
REMARK   72  A    between atoms: _204  and  _207
REMARK   73  A    between atoms: _207  and  _208
REMARK   74  A    between atoms: _215  and  _216
REMARK   75  A    between atoms: _220  and  _222
REMARK   76  A    between atoms: _222  and  _223
REMARK   77  A    between atoms: _222  and  _225
REMARK   78  A    between atoms: _225  and  _226
REMARK   79  A    between atoms: _231  and  _232
REMARK   80  A    between atoms: _234  and  _236
REMARK   81  A    between atoms: _236  and  _237
REMARK   82  A    between atoms: _236  and  _239
REMARK   83  A    between atoms: _242  and  _244
REMARK   84  A    between atoms: _244  and  _245
REMARK   85  A    between atoms: _248  and  _250
REMARK   86  A    between atoms: _250  and  _251
REMARK   87  A    between atoms: _250  and  _253
REMARK   88  A    between atoms: _255  and  _257
REMARK   89  A    between atoms: _257  and  _258
REMARK   90  A    between atoms: _257  and  _260
REMARK   91  A    between atoms: _260  and  _261
REMARK   92  A    between atoms: _261  and  _262
REMARK   93  A    between atoms: _266  and  _267
REMARK   94  A    between atoms: _272  and  _274
REMARK   95  A    between atoms: _274  and  _275
REMARK   96  A    between atoms: _274  and  _277
REMARK   97  A    between atoms: _280  and  _282
REMARK   98  A    between atoms: _282  and  _283
REMARK   99  A    between atoms: _282  and  _285
REMARK  100  A    between atoms: _285  and  _286
REMARK  101  A    between atoms: _291  and  _293
REMARK  102  A    between atoms: _293  and  _294
REMARK  103  A    between atoms: _293  and  _296
REMARK  104  A    between atoms: _296  and  _297
REMARK  105  A    between atoms: _303  and  _305
REMARK  106  A    between atoms: _305  and  _306
REMARK  107  A    between atoms: _305  and  _308
REMARK  108  A    between atoms: _308  and  _309
REMARK  109  A    between atoms: _312  and  _314
REMARK  110  A    between atoms: _314  and  _315
REMARK                            x       y       z     vdW  Elec       q    Type
REMARK                         _______ _______ _______ _____ _____    ______ ____
ROOT
ATOM      1  CA  CYS A   2      34.601  -2.212  24.080  0.00  0.00    +0.160 C 
ATOM      2  CB  CYS A   2      34.997  -0.752  23.997  0.00  0.00    +0.098 C 
ATOM      3  SG  CYS A   2      33.679   0.481  24.060  0.00  0.00    -0.080 S 
ATOM      4  SG  CYS A   9      32.484  -0.005  22.493  0.00  0.00    -0.080 S 
ATOM      5  CB  CYS A   9      31.045  -0.780  23.293  0.00  0.00    +0.098 C 
ATOM      6  CA  CYS A   9      30.018   0.307  23.649  0.00  0.00    +0.160 C 
ATOM      7  N   CYS A   9      30.454   1.089  24.805  0.00  0.00    -0.296 N 
ATOM      8  H   CYS A   9      30.733   0.595  25.677  0.00  0.00    +0.150 HD
ATOM      9  C   ASN A   8      30.502   2.419  24.766  0.00  0.00    +0.241 C 
ATOM     10  CA  ASN A   8      30.941   3.129  26.044  0.00  0.00    +0.158 C 
ATOM     11  N   ASN A   8      31.940   2.423  26.831  0.00  0.00    -0.297 N 
ATOM     12  C   THR A   7      31.594   1.706  27.893  0.00  0.00    +0.243 C 
ATOM     13  CA  THR A   7      32.719   1.038  28.670  0.00  0.00    +0.176 C 
ATOM     14  N   THR A   7      34.056   1.545  28.369  0.00  0.00    -0.295 N 
ATOM     15  H   THR A   7      34.329   2.493  28.698  0.00  0.00    +0.150 HD
ATOM     16  C   GLN A   6      34.928   0.817  27.684  0.00  0.00    +0.241 C 
ATOM     17  CA  GLN A   6      36.307   1.422  27.474  0.00  0.00    +0.149 C 
ATOM     18  N   GLN A   6      37.221   0.368  27.070  0.00  0.00    -0.297 N 
ATOM     19  C   GLY A   5      37.617  -0.547  27.951  0.00  0.00    +0.243 C 
ATOM     20  O   GLY A   5      37.275  -0.512  29.137  0.00  0.00    -0.273 OA
ATOM     21  CA  GLY A   5      38.545  -1.636  27.450  0.00  0.00    +0.176 C 
ATOM     22  N   GLY A   5      38.706  -1.714  26.008  0.00  0.00    -0.295 N 
ATOM     23  H   GLY A   5      38.020  -2.252  25.441  0.00  0.00    +0.150 HD
ATOM     24  C   ASN A   4      39.722  -1.104  25.407  0.00  0.00    +0.241 C 
ATOM     25  O   ASN A   4      40.564  -0.452  26.023  0.00  0.00    -0.273 OA
ATOM     26  CA  ASN A   4      39.821  -1.255  23.888  0.00  0.00    +0.158 C 
ATOM     27  N   ASN A   4      38.717  -2.000  23.289  0.00  0.00    -0.297 N 
ATOM     28  C   LYS A   3      38.753  -3.330  23.210  0.00  0.00    +0.241 C 
ATOM     29  O   LYS A   3      39.689  -3.990  23.656  0.00  0.00    -0.273 OA
ATOM     30  CA  LYS A   3      37.562  -4.031  22.549  0.00  0.00    +0.149 C 
ATOM     31  N   LYS A   3      36.321  -3.291  22.741  0.00  0.00    -0.297 N 
ATOM     32  H   LYS A   3      35.771  -2.978  21.916  0.00  0.00    +0.150 HD
ATOM     33  H   ASN A   4      37.892  -1.486  22.919  0.00  0.00    +0.150 HD
ATOM     34  H   GLN A   6      37.567   0.328  26.090  0.00  0.00    +0.150 HD
ATOM     35  O   GLN A   6      34.663  -0.300  27.231  0.00  0.00    -0.273 OA
ATOM     36  O   THR A   7      30.421   1.564  28.252  0.00  0.00    -0.273 OA
ATOM     37  H   ASN A   8      32.942   2.481  26.557  0.00  0.00    +0.150 HD
ATOM     38  O   ASN A   8      30.206   3.072  23.765  0.00  0.00    -0.273 OA
ATOM     39  C   CYS A   2      35.891  -3.016  23.965  0.00  0.00    +0.242 C 
ATOM     40  O   CYS A   2      36.509  -3.348  24.971  0.00  0.00    -0.273 OA
ENDROOT
BRANCH   1  42
ATOM     41  C   ALA A   1      33.256  -3.583  25.572  0.00  0.00    +0.238 C 
ATOM     42  N   CYS A   2      33.985  -2.497  25.367  0.00  0.00    -0.297 N 
ATOM     43  H   CYS A   2      34.122  -1.827  26.150  0.00  0.00    +0.150 HD
ATOM     44  O   ALA A   1      33.006  -4.403  24.685  0.00  0.00    -0.274 OA
BRANCH  41  45
ATOM     45  CA  ALA A   1      32.723  -3.761  26.992  0.00  0.00    +0.145 C 
ATOM     46  CB  ALA A   1      33.636  -4.702  27.777  0.00  0.00    +0.028 C 
BRANCH  45  47
ATOM     47  N   ALA A   1      31.365  -4.276  26.976  0.00  0.00    -0.238 NA
ATOM     48  H   ALA A   1      31.173  -5.239  27.319  0.00  0.00    +0.142 HD
ENDBRANCH  45  47
ENDBRANCH  41  45
ENDBRANCH   1  42
BRANCH   6  49
ATOM     49  C   CYS A   9      28.655  -0.304  23.888  0.00  0.00    +0.242 C 
ATOM     50  O   CYS A   9      28.283  -0.622  25.024  0.00  0.00    -0.273 OA
ATOM     51  N   TYR A  10      27.904  -0.451  22.805  0.00  0.00    -0.298 N 
ATOM     52  H   TYR A  10      28.292  -0.173  21.881  0.00  0.00    +0.150 HD
BRANCH  51  53
ATOM     53  CA  TYR A  10      26.560  -0.986  22.869  0.00  0.00    +0.141 C 
BRANCH  53  54
ATOM     54  C   TYR A  10      26.300  -1.952  21.734  0.00  0.00    +0.227 C 
ATOM     55  O   TYR A  10      26.712  -1.717  20.591  0.00  0.00    -0.286 OA
ENDBRANCH  53  54
BRANCH  53  56
ATOM     56  CB  TYR A  10      25.547   0.159  22.817  0.00  0.00    +0.054 C 
BRANCH  56  57
ATOM     57  CG  TYR A  10      25.799   1.207  23.872  0.00  0.00    -0.020 A 
ATOM     58  CD2 TYR A  10      25.140   1.155  25.100  0.00  0.00    -0.001 A 
ATOM     59  CE2 TYR A  10      25.456   2.046  26.115  0.00  0.00    +0.036 A 
ATOM     60  CZ  TYR A  10      26.435   3.006  25.909  0.00  0.00    +0.134 A 
ATOM     61  CE1 TYR A  10      27.094   3.084  24.696  0.00  0.00    +0.036 A 
ATOM     62  CD1 TYR A  10      26.774   2.187  23.687  0.00  0.00    -0.001 A 
BRANCH  60  63
ATOM     63  OH  TYR A  10      26.769   3.882  26.917  0.00  0.00    -0.506 OA
ATOM     64  HH  TYR A  10      27.480   4.493  26.599  0.00  0.00    +0.292 HD
ENDBRANCH  60  63
ENDBRANCH  56  57
ENDBRANCH  53  56
ENDBRANCH  51  53
ENDBRANCH   6  49
BRANCH  13  65
ATOM     65  CB  THR A   7      32.399   1.197  30.170  0.00  0.00    +0.137 C 
ATOM     66  CG2 THR A   7      33.528   0.630  31.020  0.00  0.00    +0.034 C 
BRANCH  65  67
ATOM     67  OG1 THR A   7      32.236   2.586  30.476  0.00  0.00    -0.382 OA
ATOM     68  HG1 THR A   7      31.492   2.956  29.937  0.00  0.00    +0.210 HD
ENDBRANCH  65  67
ENDBRANCH  13  65
BRANCH  26  69
ATOM     69  CB  ASN A   4      39.948   0.126  23.222  0.00  0.00    +0.114 C 
BRANCH  69  70
ATOM     70  CG  ASN A   4      38.920   1.132  23.722  0.00  0.00    +0.222 C 
ATOM     71  OD1 ASN A   4      37.882   0.772  24.281  0.00  0.00    -0.275 OA
ATOM     72  ND2 ASN A   4      39.204   2.412  23.502  0.00  0.00    -0.329 N 
ATOM     73 HD21 ASN A   4      38.539   3.152  23.805  0.00  0.00    +0.145 HD
ATOM     74 HD22 ASN A   4      40.091   2.674  23.027  0.00  0.00    +0.145 HD
ENDBRANCH  69  70
ENDBRANCH  26  69
BRANCH  17  75
ATOM     75  CB  GLN A   6      36.268   2.535  26.428  0.00  0.00    +0.039 C 
BRANCH  75  76
ATOM     76  CG  GLN A   6      37.477   3.454  26.533  0.00  0.00    +0.087 C 
BRANCH  76  77
ATOM     77  CD  GLN A   6      37.382   4.665  25.630  0.00  0.00    +0.219 C 
ATOM     78  NE2 GLN A   6      36.851   5.758  26.165  0.00  0.00    -0.329 N 
ATOM     79 HE21 GLN A   6      36.530   5.749  27.154  0.00  0.00    +0.145 HD
ATOM     80 HE22 GLN A   6      36.756   6.623  25.595  0.00  0.00    +0.145 HD
ATOM     81  OE1 GLN A   6      37.778   4.619  24.467  0.00  0.00    -0.275 OA
ENDBRANCH  76  77
ENDBRANCH  75  76
ENDBRANCH  17  75
BRANCH  10  82
ATOM     82  CB  ASN A   8      31.456   4.535  25.714  0.00  0.00    +0.114 C 
BRANCH  82  83
ATOM     83  CG  ASN A   8      32.670   4.516  24.813  0.00  0.00    +0.222 C 
ATOM     84  OD1 ASN A   8      33.586   3.713  25.000  0.00  0.00    -0.275 OA
ATOM     85  ND2 ASN A   8      32.692   5.414  23.832  0.00  0.00    -0.329 N 
ATOM     86 HD21 ASN A   8      31.896   6.072  23.712  0.00  0.00    +0.145 HD
ATOM     87 HD22 ASN A   8      33.505   5.458  23.185  0.00  0.00    +0.145 HD
ENDBRANCH  82  83
ENDBRANCH  10  82
BRANCH  30  88
ATOM     88  CB  LYS A   3      37.844  -4.222  21.058  0.00  0.00    +0.029 C 
BRANCH  88  89
ATOM     89  CG  LYS A   3      36.964  -5.259  20.398  0.00  0.00    +0.000 C 
BRANCH  89  90
ATOM     90  CD  LYS A   3      37.253  -5.367  18.911  0.00  0.00    -0.024 C 
BRANCH  90  91
ATOM     91  CE  LYS A   3      36.467  -6.511  18.292  0.00  0.00    -0.086 C 
BRANCH  91  92
ATOM     92  NZ  LYS A   3      36.604  -6.543  16.809  0.00  0.00    +0.380 N 
ATOM     93  HZ1 LYS A   3      37.606  -6.663  16.557  0.00  0.00    -0.089 HD
ATOM     94  HZ2 LYS A   3      36.052  -7.338  16.428  0.00  0.00    -0.089 HD
ATOM     95  HZ3 LYS A   3      36.249  -5.651  16.410  0.00  0.00    -0.089 HD
ENDBRANCH  91  92
ENDBRANCH  90  91
ENDBRANCH  89  90
ENDBRANCH  88  89
ENDBRANCH  30  88
TORSDOF 23
REMARK  Name = ../refined-set-2016/1o0f/1o0f_pocket.pdb
REMARK  110 active torsions:
REMARK  status: ('A' for Active; 'I' for Inactive)
REMARK    1  A    between atoms: _1  and  _3
REMARK    2  A    between atoms: _3  and  _4
REMARK    3  A    between atoms: _7  and  _9
REMARK    4  A    between atoms: _9  and  _10
REMARK    5  A    between atoms: _9  and  _12
REMARK    6  A    between atoms: _12  and  _13
REMARK    7  A    between atoms: _13  and  _14
REMARK    8  A    between atoms: _14  and  _15
REMARK    9  A    between atoms: _15  and  _16
REMARK   10  A    between atoms: _20  and  _22
REMARK   11  A    between atoms: _22  and  _23
REMARK   12  A    between atoms: _22  and  _25
REMARK   13  A    between atoms: _25  and  _26
REMARK   14  A    between atoms: _32  and  _34
REMARK   15  A    between atoms: _34  and  _35
REMARK   16  A    between atoms: _34  and  _37
REMARK   17  A    between atoms: _37  and  _38
REMARK   18  A    between atoms: _38  and  _39
REMARK   19  A    between atoms: _39  and  _40
REMARK   20  A    between atoms: _49  and  _51
REMARK   21  A    between atoms: _51  and  _52
REMARK   22  A    between atoms: _51  and  _54
REMARK   23  A    between atoms: _54  and  _55
REMARK   24  A    between atoms: _55  and  _56
REMARK   25  A    between atoms: _61  and  _63
REMARK   26  A    between atoms: _63  and  _64
REMARK   27  A    between atoms: _63  and  _66
REMARK   28  A    between atoms: _66  and  _67
REMARK   29  A    between atoms: _72  and  _74
REMARK   30  A    between atoms: _74  and  _75
REMARK   31  A    between atoms: _74  and  _77
REMARK   32  A    between atoms: _77  and  _78
REMARK   33  A    between atoms: _81  and  _83
REMARK   34  A    between atoms: _83  and  _84
REMARK   35  A    between atoms: _83  and  _86
REMARK   36  A    between atoms: _86  and  _87
REMARK   37  A    between atoms: _87  and  _88
REMARK   38  A    between atoms: _88  and  _89
REMARK   39  A    between atoms: _98  and  _100
REMARK   40  A    between atoms: _100  and  _101
REMARK   41  A    between atoms: _100  and  _103
REMARK   42  A    between atoms: _103  and  _104
REMARK   43  A    between atoms: _104  and  _105
REMARK   44  A    between atoms: _105  and  _106
REMARK   45  A    between atoms: _106  and  _107
REMARK   46  A    between atoms: _111  and  _113
REMARK   47  A    between atoms: _113  and  _114
REMARK   48  A    between atoms: _113  and  _116
REMARK   49  A    between atoms: _119  and  _121
REMARK   50  A    between atoms: _121  and  _122
REMARK   51  A    between atoms: _121  and  _124
REMARK   52  A    between atoms: _124  and  _125
REMARK   53  A    between atoms: _130  and  _132
REMARK   54  A    between atoms: _132  and  _133
REMARK   55  A    between atoms: _132  and  _135
REMARK   56  A    between atoms: _135  and  _136
REMARK   57  A    between atoms: _139  and  _141
REMARK   58  A    between atoms: _141  and  _142
REMARK   59  A    between atoms: _145  and  _147
REMARK   60  A    between atoms: _154  and  _157
REMARK   61  A    between atoms: _157  and  _158
REMARK   62  A    between atoms: _158  and  _159
REMARK   63  A    between atoms: _159  and  _160
REMARK   64  A    between atoms: _160  and  _161
REMARK   65  A    between atoms: _167  and  _170
REMARK   66  A    between atoms: _170  and  _171
REMARK   67  A    between atoms: _183  and  _186
REMARK   68  A    between atoms: _186  and  _187
REMARK   69  A    between atoms: _187  and  _188
REMARK   70  A    between atoms: _195  and  _198
REMARK   71  A    between atoms: _198  and  _199
REMARK   72  A    between atoms: _204  and  _207
REMARK   73  A    between atoms: _207  and  _208
REMARK   74  A    between atoms: _215  and  _216
REMARK   75  A    between atoms: _220  and  _222
REMARK   76  A    between atoms: _222  and  _223
REMARK   77  A    between atoms: _222  and  _225
REMARK   78  A    between atoms: _225  and  _226
REMARK   79  A    between atoms: _231  and  _232
REMARK   80  A    between atoms: _234  and  _236
REMARK   81  A    between atoms: _236  and  _237
REMARK   82  A    between atoms: _236  and  _239
REMARK   83  A    between atoms: _242  and  _244
REMARK   84  A    between atoms: _244  and  _245
REMARK   85  A    between atoms: _248  and  _250
REMARK   86  A    between atoms: _250  and  _251
REMARK   87  A    between atoms: _250  and  _253
REMARK   88  A    between atoms: _255  and  _257
REMARK   89  A    between atoms: _257  and  _258
REMARK   90  A    between atoms: _257  and  _260
REMARK   91  A    between atoms: _260  and  _261
REMARK   92  A    between atoms: _261  and  _262
REMARK   93  A    between atoms: _266  and  _267
REMARK   94  A    between atoms: _272  and  _274
REMARK   95  A    between atoms: _274  and  _275
REMARK   96  A    between atoms: _274  and  _277
REMARK   97  A    between atoms: _280  and  _282
REMARK   98  A    between atoms: _282  and  _283
REMARK   99  A    between atoms: _282  and  _285
REMARK  100  A    between atoms: _285  and  _286
REMARK  101  A    between atoms: _291  and  _293
REMARK  102  A    between atoms: _293  and  _294
REMARK  103  A    between atoms: _293  and  _296
REMARK  104  A    between atoms: _296  and  _297
REMARK  105  A    between atoms: _303  and  _305
REMARK  106  A    between atoms: _305  and  _306
REMARK  107  A    between atoms: _305  and  _308
REMARK  108  A    between atoms: _308  and  _309
REMARK  109  A    between atoms: _312  and  _314
REMARK  110  A    between atoms: _314  and  _315
REMARK                            x       y       z     vdW  Elec       q    Type
REMARK                         _______ _______ _______ _____ _____    ______ ____
ROOT
ATOM      1  C   ALA A   2      30.308   4.388  20.475  0.00  0.00    +0.241 C 
ATOM      2  N   CYS A   3      29.737   4.959  21.528  0.00  0.00    -0.296 N 
ATOM      3  H   CYS A   3      29.798   4.489  22.454  0.00  0.00    +0.150 HD
ATOM      4  O   ALA A   2      30.285   4.888  19.352  0.00  0.00    -0.273 OA
ENDROOT
BRANCH   1   5
ATOM      5  CA  ALA A   2      31.006   3.055  20.711  0.00  0.00    +0.149 C 
ATOM      6  CB  ALA A   2      32.507   3.253  20.767  0.00  0.00    +0.031 C 
BRANCH   5   9
ATOM      7  C   VAL A   1      29.688   1.310  19.654  0.00  0.00    +0.238 C 
ATOM      8  O   VAL A   1      29.117   1.034  20.709  0.00  0.00    -0.274 OA
ATOM      9  N   ALA A   2      30.640   2.231  19.568  0.00  0.00    -0.297 N 
ATOM     10  H   ALA A   2      31.136   2.367  18.664  0.00  0.00    +0.150 HD
BRANCH   7  11
ATOM     11  CA  VAL A   1      29.352   0.565  18.368  0.00  0.00    +0.145 C 
BRANCH  11  12
ATOM     12  CB  VAL A   1      28.373   1.445  17.541  0.00  0.00    +0.025 C 
ATOM     13  CG2 VAL A   1      27.081   1.677  18.327  0.00  0.00    +0.002 C 
ATOM     14  CG1 VAL A   1      28.084   0.789  16.195  0.00  0.00    +0.002 C 
ENDBRANCH  11  12
BRANCH  11  15
ATOM     15  N   VAL A   1      28.778  -0.741  18.657  0.00  0.00    -0.238 NA
ATOM     16  H   VAL A   1      27.950  -0.804  19.283  0.00  0.00    +0.142 HD
ENDBRANCH  11  15
ENDBRANCH   7  11
ENDBRANCH   5   9
ENDBRANCH   1   5
BRANCH   2  17
ATOM     17  CA  CYS A   3      29.026   6.228  21.422  0.00  0.00    +0.160 C 
BRANCH  17  18
ATOM     18  C   CYS A   3      29.642   7.289  22.320  0.00  0.00    +0.242 C 
ATOM     19  O   CYS A   3      30.193   6.979  23.376  0.00  0.00    -0.273 OA
ATOM     20  N   GLU A   4      29.539   8.544  21.891  0.00  0.00    -0.298 N 
ATOM     21  H   GLU A   4      29.055   8.726  20.989  0.00  0.00    +0.150 HD
BRANCH  20  22
ATOM     22  CA  GLU A   4      30.079   9.674  22.639  0.00  0.00    +0.137 C 
BRANCH  22  23
ATOM     23  C   GLU A   4      29.259  10.926  22.389  0.00  0.00    +0.227 C 
ATOM     24  O   GLU A   4      28.477  10.991  21.438  0.00  0.00    -0.286 OA
ENDBRANCH  22  23
BRANCH  22  25
ATOM     25  CB  GLU A   4      31.504  10.005  22.193  0.00  0.00    +0.039 C 
BRANCH  25  26
ATOM     26  CG  GLU A   4      32.588   9.023  22.550  0.00  0.00    +0.116 C 
BRANCH  26  27
ATOM     27  CD  GLU A   4      33.939   9.476  22.007  0.00  0.00    +0.365 C 
ATOM     28  OE2 GLU A   4      34.964   8.846  22.327  0.00  0.00    -0.246 OA
ATOM     29  OE1 GLU A   4      33.978  10.467  21.246  0.00  0.00    -0.246 OA
ENDBRANCH  26  27
ENDBRANCH  25  26
ENDBRANCH  22  25
ENDBRANCH  20  22
ENDBRANCH  17  18
BRANCH  17  30
ATOM     30  CB  CYS A   3      27.566   6.028  21.811  0.00  0.00    +0.098 C 
ATOM     31  SG  CYS A   3      26.764   4.699  20.875  0.00  0.00    -0.080 S 
ENDBRANCH  17  30
ENDBRANCH   2  17
TORSDOF 13
REMARK  Name = ../refined-set-2016/1o0f/1o0f_pocket.pdb
REMARK  110 active torsions:
REMARK  status: ('A' for Active; 'I' for Inactive)
REMARK    1  A    between atoms: _1  and  _3
REMARK    2  A    between atoms: _3  and  _4
REMARK    3  A    between atoms: _7  and  _9
REMARK    4  A    between atoms: _9  and  _10
REMARK    5  A    between atoms: _9  and  _12
REMARK    6  A    between atoms: _12  and  _13
REMARK    7  A    between atoms: _13  and  _14
REMARK    8  A    between atoms: _14  and  _15
REMARK    9  A    between atoms: _15  and  _16
REMARK   10  A    between atoms: _20  and  _22
REMARK   11  A    between atoms: _22  and  _23
REMARK   12  A    between atoms: _22  and  _25
REMARK   13  A    between atoms: _25  and  _26
REMARK   14  A    between atoms: _32  and  _34
REMARK   15  A    between atoms: _34  and  _35
REMARK   16  A    between atoms: _34  and  _37
REMARK   17  A    between atoms: _37  and  _38
REMARK   18  A    between atoms: _38  and  _39
REMARK   19  A    between atoms: _39  and  _40
REMARK   20  A    between atoms: _49  and  _51
REMARK   21  A    between atoms: _51  and  _52
REMARK   22  A    between atoms: _51  and  _54
REMARK   23  A    between atoms: _54  and  _55
REMARK   24  A    between atoms: _55  and  _56
REMARK   25  A    between atoms: _61  and  _63
REMARK   26  A    between atoms: _63  and  _64
REMARK   27  A    between atoms: _63  and  _66
REMARK   28  A    between atoms: _66  and  _67
REMARK   29  A    between atoms: _72  and  _74
REMARK   30  A    between atoms: _74  and  _75
REMARK   31  A    between atoms: _74  and  _77
REMARK   32  A    between atoms: _77  and  _78
REMARK   33  A    between atoms: _81  and  _83
REMARK   34  A    between atoms: _83  and  _84
REMARK   35  A    between atoms: _83  and  _86
REMARK   36  A    between atoms: _86  and  _87
REMARK   37  A    between atoms: _87  and  _88
REMARK   38  A    between atoms: _88  and  _89
REMARK   39  A    between atoms: _98  and  _100
REMARK   40  A    between atoms: _100  and  _101
REMARK   41  A    between atoms: _100  and  _103
REMARK   42  A    between atoms: _103  and  _104
REMARK   43  A    between atoms: _104  and  _105
REMARK   44  A    between atoms: _105  and  _106
REMARK   45  A    between atoms: _106  and  _107
REMARK   46  A    between atoms: _111  and  _113
REMARK   47  A    between atoms: _113  and  _114
REMARK   48  A    between atoms: _113  and  _116
REMARK   49  A    between atoms: _119  and  _121
REMARK   50  A    between atoms: _121  and  _122
REMARK   51  A    between atoms: _121  and  _124
REMARK   52  A    between atoms: _124  and  _125
REMARK   53  A    between atoms: _130  and  _132
REMARK   54  A    between atoms: _132  and  _133
REMARK   55  A    between atoms: _132  and  _135
REMARK   56  A    between atoms: _135  and  _136
REMARK   57  A    between atoms: _139  and  _141
REMARK   58  A    between atoms: _141  and  _142
REMARK   59  A    between atoms: _145  and  _147
REMARK   60  A    between atoms: _154  and  _157
REMARK   61  A    between atoms: _157  and  _158
REMARK   62  A    between atoms: _158  and  _159
REMARK   63  A    between atoms: _159  and  _160
REMARK   64  A    between atoms: _160  and  _161
REMARK   65  A    between atoms: _167  and  _170
REMARK   66  A    between atoms: _170  and  _171
REMARK   67  A    between atoms: _183  and  _186
REMARK   68  A    between atoms: _186  and  _187
REMARK   69  A    between atoms: _187  and  _188
REMARK   70  A    between atoms: _195  and  _198
REMARK   71  A    between atoms: _198  and  _199
REMARK   72  A    between atoms: _204  and  _207
REMARK   73  A    between atoms: _207  and  _208
REMARK   74  A    between atoms: _215  and  _216
REMARK   75  A    between atoms: _220  and  _222
REMARK   76  A    between atoms: _222  and  _223
REMARK   77  A    between atoms: _222  and  _225
REMARK   78  A    between atoms: _225  and  _226
REMARK   79  A    between atoms: _231  and  _232
REMARK   80  A    between atoms: _234  and  _236
REMARK   81  A    between atoms: _236  and  _237
REMARK   82  A    between atoms: _236  and  _239
REMARK   83  A    between atoms: _242  and  _244
REMARK   84  A    between atoms: _244  and  _245
REMARK   85  A    between atoms: _248  and  _250
REMARK   86  A    between atoms: _250  and  _251
REMARK   87  A    between atoms: _250  and  _253
REMARK   88  A    between atoms: _255  and  _257
REMARK   89  A    between atoms: _257  and  _258
REMARK   90  A    between atoms: _257  and  _260
REMARK   91  A    between atoms: _260  and  _261
REMARK   92  A    between atoms: _261  and  _262
REMARK   93  A    between atoms: _266  and  _267
REMARK   94  A    between atoms: _272  and  _274
REMARK   95  A    between atoms: _274  and  _275
REMARK   96  A    between atoms: _274  and  _277
REMARK   97  A    between atoms: _280  and  _282
REMARK   98  A    between atoms: _282  and  _283
REMARK   99  A    between atoms: _282  and  _285
REMARK  100  A    between atoms: _285  and  _286
REMARK  101  A    between atoms: _291  and  _293
REMARK  102  A    between atoms: _293  and  _294
REMARK  103  A    between atoms: _293  and  _296
REMARK  104  A    between atoms: _296  and  _297
REMARK  105  A    between atoms: _303  and  _305
REMARK  106  A    between atoms: _305  and  _306
REMARK  107  A    between atoms: _305  and  _308
REMARK  108  A    between atoms: _308  and  _309
REMARK  109  A    between atoms: _312  and  _314
REMARK  110  A    between atoms: _314  and  _315
REMARK                            x       y       z     vdW  Elec       q    Type
REMARK                         _______ _______ _______ _____ _____    ______ ____
ROOT
ATOM      1  C   HIS A   3      32.482   2.747  16.062  0.00  0.00    +0.241 C 
ATOM      2  O   HIS A   3      31.561   2.448  16.815  0.00  0.00    -0.273 OA
ATOM      3  N   PHE A   4      32.879   1.963  15.067  0.00  0.00    -0.297 N 
ATOM      4  H   PHE A   4      33.628   2.284  14.421  0.00  0.00    +0.150 HD
ENDROOT
BRANCH   1   5
ATOM      5  CA  HIS A   3      33.209   4.069  16.217  0.00  0.00    +0.155 C 
BRANCH   5   7
ATOM      6  C   VAL A   2      32.574   6.404  16.361  0.00  0.00    +0.241 C 
ATOM      7  N   HIS A   3      32.257   5.127  16.526  0.00  0.00    -0.297 N 
ATOM      8  H   HIS A   3      31.312   4.877  16.882  0.00  0.00    +0.150 HD
ATOM      9  O   VAL A   2      33.664   6.761  15.925  0.00  0.00    -0.273 OA
BRANCH   6  10
ATOM     10  CA  VAL A   2      31.503   7.428  16.727  0.00  0.00    +0.148 C 
BRANCH  10  12
ATOM     11  C   PRO A   1      29.076   7.182  16.774  0.00  0.00    +0.239 C 
ATOM     12  N   VAL A   2      30.273   6.800  17.206  0.00  0.00    -0.297 N 
ATOM     13  H   VAL A   2      30.337   6.032  17.905  0.00  0.00    +0.150 HD
ATOM     14  O   PRO A   1      28.916   8.094  15.956  0.00  0.00    -0.274 OA
BRANCH  11  16
ATOM     15  N   PRO A   1      26.762   7.303  17.696  0.00  0.00    -0.210 NA
ATOM     16  CA  PRO A   1      27.878   6.423  17.340  0.00  0.00    +0.149 C 
ATOM     17  CB  PRO A   1      27.269   5.482  16.297  0.00  0.00    +0.028 C 
ATOM     18  CG  PRO A   1      25.798   5.502  16.612  0.00  0.00    +0.021 C 
ATOM     19  CD  PRO A   1      25.554   6.951  16.928  0.00  0.00    +0.089 C 
ENDBRANCH  11  16
ENDBRANCH  10  12
BRANCH  10  20
ATOM     20  CB  VAL A   2      32.090   8.398  17.770  0.00  0.00    +0.027 C 
ATOM     21  CG2 VAL A   2      32.374   7.665  19.078  0.00  0.00    +0.002 C 
ATOM     22  CG1 VAL A   2      31.126   9.550  18.000  0.00  0.00    +0.002 C 
ENDBRANCH  10  20
ENDBRANCH   6  10
ENDBRANCH   5   7
BRANCH   5  23
ATOM     23  CB  HIS A   3      34.247   3.973  17.350  0.00  0.00    +0.076 C 
BRANCH  23  24
ATOM     24  CG  HIS A   3      34.957   2.653  17.434  0.00  0.00    +0.082 A 
ATOM     25  CD2 HIS A   3      34.839   1.637  18.322  0.00  0.00    +0.115 A 
ATOM     26  NE2 HIS A   3      35.754   0.675  17.968  0.00  0.00    -0.221 NA
ATOM     27  CE1 HIS A   3      36.411   1.084  16.897  0.00  0.00    +0.199 A 
ATOM     28  ND1 HIS A   3      35.948   2.273  16.553  0.00  0.00    -0.227 NA
ENDBRANCH  23  24
ENDBRANCH   5  23
ENDBRANCH   1   5
BRANCH   3  29
ATOM     29  CA  PHE A   4      32.269   0.654  14.877  0.00  0.00    +0.153 C 
BRANCH  29  30
ATOM     30  C   PHE A   4      33.246  -0.314  15.535  0.00  0.00    +0.241 C 
ATOM     31  N   ASP A   5      32.801  -1.008  16.578  0.00  0.00    -0.297 N 
ATOM     32  H   ASP A   5      31.809  -0.907  16.875  0.00  0.00    +0.150 HD
ATOM     33  O   PHE A   4      34.389  -0.431  15.103  0.00  0.00    -0.273 OA
BRANCH  31  34
ATOM     34  CA  ASP A   5      33.683  -1.910  17.313  0.00  0.00    +0.160 C 
BRANCH  34  35
ATOM     35  C   ASP A   5      33.732  -3.355  16.841  0.00  0.00    +0.241 C 
ATOM     36  O   ASP A   5      34.813  -3.949  16.778  0.00  0.00    -0.273 OA
ATOM     37  N   ALA A   6      32.575  -3.925  16.523  0.00  0.00    -0.298 N 
ATOM     38  H   ALA A   6      31.696  -3.373  16.587  0.00  0.00    +0.150 HD
BRANCH  37  39
ATOM     39  CA  ALA A   6      32.521  -5.311  16.086  0.00  0.00    +0.137 C 
ATOM     40  CB  ALA A   6      33.032  -6.215  17.198  0.00  0.00    +0.030 C 
BRANCH  39  41
ATOM     41  C   ALA A   6      31.104  -5.717  15.726  0.00  0.00    +0.227 C 
ATOM     42  O   ALA A   6      30.162  -4.956  15.912  0.00  0.00    -0.286 OA
ENDBRANCH  39  41
ENDBRANCH  37  39
ENDBRANCH  34  35
BRANCH  34  43
ATOM     43  CB  ASP A   5      33.318  -1.878  18.805  0.00  0.00    +0.143 C 
BRANCH  43  44
ATOM     44  CG  ASP A   5      34.514  -2.153  19.711  0.00  0.00    +0.367 C 
ATOM     45  OD2 ASP A   5      34.418  -3.033  20.597  0.00  0.00    -0.246 OA
ATOM     46  OD1 ASP A   5      35.552  -1.476  19.546  0.00  0.00    -0.246 OA
ENDBRANCH  43  44
ENDBRANCH  34  43
ENDBRANCH  31  34
ENDBRANCH  29  30
BRANCH  29  47
ATOM     47  CB  PHE A   4      32.125   0.325  13.392  0.00  0.00    +0.055 C 
BRANCH  47  48
ATOM     48  CG  PHE A   4      31.353  -0.933  13.133  0.00  0.00    -0.020 A 
ATOM     49  CD2 PHE A   4      31.989  -2.170  13.168  0.00  0.00    -0.004 A 
ATOM     50  CE2 PHE A   4      31.270  -3.352  12.994  0.00  0.00    -0.000 A 
ATOM     51  CZ  PHE A   4      29.896  -3.300  12.780  0.00  0.00    -0.000 A 
ATOM     52  CE1 PHE A   4      29.253  -2.072  12.739  0.00  0.00    -0.000 A 
ATOM     53  CD1 PHE A   4      29.981  -0.894  12.914  0.00  0.00    -0.004 A 
ENDBRANCH  47  48
ENDBRANCH  29  47
ENDBRANCH   3  29
TORSDOF 18
REMARK  Name = ../refined-set-2016/1o0f/1o0f_pocket.pdb
REMARK  110 active torsions:
REMARK  status: ('A' for Active; 'I' for Inactive)
REMARK    1  A    between atoms: _1  and  _3
REMARK    2  A    between atoms: _3  and  _4
REMARK    3  A    between atoms: _7  and  _9
REMARK    4  A    between atoms: _9  and  _10
REMARK    5  A    between atoms: _9  and  _12
REMARK    6  A    between atoms: _12  and  _13
REMARK    7  A    between atoms: _13  and  _14
REMARK    8  A    between atoms: _14  and  _15
REMARK    9  A    between atoms: _15  and  _16
REMARK   10  A    between atoms: _20  and  _22
REMARK   11  A    between atoms: _22  and  _23
REMARK   12  A    between atoms: _22  and  _25
REMARK   13  A    between atoms: _25  and  _26
REMARK   14  A    between atoms: _32  and  _34
REMARK   15  A    between atoms: _34  and  _35
REMARK   16  A    between atoms: _34  and  _37
REMARK   17  A    between atoms: _37  and  _38
REMARK   18  A    between atoms: _38  and  _39
REMARK   19  A    between atoms: _39  and  _40
REMARK   20  A    between atoms: _49  and  _51
REMARK   21  A    between atoms: _51  and  _52
REMARK   22  A    between atoms: _51  and  _54
REMARK   23  A    between atoms: _54  and  _55
REMARK   24  A    between atoms: _55  and  _56
REMARK   25  A    between atoms: _61  and  _63
REMARK   26  A    between atoms: _63  and  _64
REMARK   27  A    between atoms: _63  and  _66
REMARK   28  A    between atoms: _66  and  _67
REMARK   29  A    between atoms: _72  and  _74
REMARK   30  A    between atoms: _74  and  _75
REMARK   31  A    between atoms: _74  and  _77
REMARK   32  A    between atoms: _77  and  _78
REMARK   33  A    between atoms: _81  and  _83
REMARK   34  A    between atoms: _83  and  _84
REMARK   35  A    between atoms: _83  and  _86
REMARK   36  A    between atoms: _86  and  _87
REMARK   37  A    between atoms: _87  and  _88
REMARK   38  A    between atoms: _88  and  _89
REMARK   39  A    between atoms: _98  and  _100
REMARK   40  A    between atoms: _100  and  _101
REMARK   41  A    between atoms: _100  and  _103
REMARK   42  A    between atoms: _103  and  _104
REMARK   43  A    between atoms: _104  and  _105
REMARK   44  A    between atoms: _105  and  _106
REMARK   45  A    between atoms: _106  and  _107
REMARK   46  A    between atoms: _111  and  _113
REMARK   47  A    between atoms: _113  and  _114
REMARK   48  A    between atoms: _113  and  _116
REMARK   49  A    between atoms: _119  and  _121
REMARK   50  A    between atoms: _121  and  _122
REMARK   51  A    between atoms: _121  and  _124
REMARK   52  A    between atoms: _124  and  _125
REMARK   53  A    between atoms: _130  and  _132
REMARK   54  A    between atoms: _132  and  _133
REMARK   55  A    between atoms: _132  and  _135
REMARK   56  A    between atoms: _135  and  _136
REMARK   57  A    between atoms: _139  and  _141
REMARK   58  A    between atoms: _141  and  _142
REMARK   59  A    between atoms: _145  and  _147
REMARK   60  A    between atoms: _154  and  _157
REMARK   61  A    between atoms: _157  and  _158
REMARK   62  A    between atoms: _158  and  _159
REMARK   63  A    between atoms: _159  and  _160
REMARK   64  A    between atoms: _160  and  _161
REMARK   65  A    between atoms: _167  and  _170
REMARK   66  A    between atoms: _170  and  _171
REMARK   67  A    between atoms: _183  and  _186
REMARK   68  A    between atoms: _186  and  _187
REMARK   69  A    between atoms: _187  and  _188
REMARK   70  A    between atoms: _195  and  _198
REMARK   71  A    between atoms: _198  and  _199
REMARK   72  A    between atoms: _204  and  _207
REMARK   73  A    between atoms: _207  and  _208
REMARK   74  A    between atoms: _215  and  _216
REMARK   75  A    between atoms: _220  and  _222
REMARK   76  A    between atoms: _222  and  _223
REMARK   77  A    between atoms: _222  and  _225
REMARK   78  A    between atoms: _225  and  _226
REMARK   79  A    between atoms: _231  and  _232
REMARK   80  A    between atoms: _234  and  _236
REMARK   81  A    between atoms: _236  and  _237
REMARK   82  A    between atoms: _236  and  _239
REMARK   83  A    between atoms: _242  and  _244
REMARK   84  A    between atoms: _244  and  _245
REMARK   85  A    between atoms: _248  and  _250
REMARK   86  A    between atoms: _250  and  _251
REMARK   87  A    between atoms: _250  and  _253
REMARK   88  A    between atoms: _255  and  _257
REMARK   89  A    between atoms: _257  and  _258
REMARK   90  A    between atoms: _257  and  _260
REMARK   91  A    between atoms: _260  and  _261
REMARK   92  A    between atoms: _261  and  _262
REMARK   93  A    between atoms: _266  and  _267
REMARK   94  A    between atoms: _272  and  _274
REMARK   95  A    between atoms: _274  and  _275
REMARK   96  A    between atoms: _274  and  _277
REMARK   97  A    between atoms: _280  and  _282
REMARK   98  A    between atoms: _282  and  _283
REMARK   99  A    between atoms: _282  and  _285
REMARK  100  A    between atoms: _285  and  _286
REMARK  101  A    between atoms: _291  and  _293
REMARK  102  A    between atoms: _293  and  _294
REMARK  103  A    between atoms: _293  and  _296
REMARK  104  A    between atoms: _296  and  _297
REMARK  105  A    between atoms: _303  and  _305
REMARK  106  A    between atoms: _305  and  _306
REMARK  107  A    between atoms: _305  and  _308
REMARK  108  A    between atoms: _308  and  _309
REMARK  109  A    between atoms: _312  and  _314
REMARK  110  A    between atoms: _314  and  _315
REMARK                            x       y       z     vdW  Elec       q    Type
REMARK                         _______ _______ _______ _____ _____    ______ ____
ROOT
ATOM      1  O   HOH     1      43.951   0.524  12.817  0.00  0.00    +0.000 OA
ENDROOT
TORSDOF 0
REMARK  Name = ../refined-set-2016/1o0f/1o0f_pocket.pdb
REMARK  110 active torsions:
REMARK  status: ('A' for Active; 'I' for Inactive)
REMARK    1  A    between atoms: _1  and  _3
REMARK    2  A    between atoms: _3  and  _4
REMARK    3  A    between atoms: _7  and  _9
REMARK    4  A    between atoms: _9  and  _10
REMARK    5  A    between atoms: _9  and  _12
REMARK    6  A    between atoms: _12  and  _13
REMARK    7  A    between atoms: _13  and  _14
REMARK    8  A    between atoms: _14  and  _15
REMARK    9  A    between atoms: _15  and  _16
REMARK   10  A    between atoms: _20  and  _22
REMARK   11  A    between atoms: _22  and  _23
REMARK   12  A    between atoms: _22  and  _25
REMARK   13  A    between atoms: _25  and  _26
REMARK   14  A    between atoms: _32  and  _34
REMARK   15  A    between atoms: _34  and  _35
REMARK   16  A    between atoms: _34  and  _37
REMARK   17  A    between atoms: _37  and  _38
REMARK   18  A    between atoms: _38  and  _39
REMARK   19  A    between atoms: _39  and  _40
REMARK   20  A    between atoms: _49  and  _51
REMARK   21  A    between atoms: _51  and  _52
REMARK   22  A    between atoms: _51  and  _54
REMARK   23  A    between atoms: _54  and  _55
REMARK   24  A    between atoms: _55  and  _56
REMARK   25  A    between atoms: _61  and  _63
REMARK   26  A    between atoms: _63  and  _64
REMARK   27  A    between atoms: _63  and  _66
REMARK   28  A    between atoms: _66  and  _67
REMARK   29  A    between atoms: _72  and  _74
REMARK   30  A    between atoms: _74  and  _75
REMARK   31  A    between atoms: _74  and  _77
REMARK   32  A    between atoms: _77  and  _78
REMARK   33  A    between atoms: _81  and  _83
REMARK   34  A    between atoms: _83  and  _84
REMARK   35  A    between atoms: _83  and  _86
REMARK   36  A    between atoms: _86  and  _87
REMARK   37  A    between atoms: _87  and  _88
REMARK   38  A    between atoms: _88  and  _89
REMARK   39  A    between atoms: _98  and  _100
REMARK   40  A    between atoms: _100  and  _101
REMARK   41  A    between atoms: _100  and  _103
REMARK   42  A    between atoms: _103  and  _104
REMARK   43  A    between atoms: _104  and  _105
REMARK   44  A    between atoms: _105  and  _106
REMARK   45  A    between atoms: _106  and  _107
REMARK   46  A    between atoms: _111  and  _113
REMARK   47  A    between atoms: _113  and  _114
REMARK   48  A    between atoms: _113  and  _116
REMARK   49  A    between atoms: _119  and  _121
REMARK   50  A    between atoms: _121  and  _122
REMARK   51  A    between atoms: _121  and  _124
REMARK   52  A    between atoms: _124  and  _125
REMARK   53  A    between atoms: _130  and  _132
REMARK   54  A    between atoms: _132  and  _133
REMARK   55  A    between atoms: _132  and  _135
REMARK   56  A    between atoms: _135  and  _136
REMARK   57  A    between atoms: _139  and  _141
REMARK   58  A    between atoms: _141  and  _142
REMARK   59  A    between atoms: _145  and  _147
REMARK   60  A    between atoms: _154  and  _157
REMARK   61  A    between atoms: _157  and  _158
REMARK   62  A    between atoms: _158  and  _159
REMARK   63  A    between atoms: _159  and  _160
REMARK   64  A    between atoms: _160  and  _161
REMARK   65  A    between atoms: _167  and  _170
REMARK   66  A    between atoms: _170  and  _171
REMARK   67  A    between atoms: _183  and  _186
REMARK   68  A    between atoms: _186  and  _187
REMARK   69  A    between atoms: _187  and  _188
REMARK   70  A    between atoms: _195  and  _198
REMARK   71  A    between atoms: _198  and  _199
REMARK   72  A    between atoms: _204  and  _207
REMARK   73  A    between atoms: _207  and  _208
REMARK   74  A    between atoms: _215  and  _216
REMARK   75  A    between atoms: _220  and  _222
REMARK   76  A    between atoms: _222  and  _223
REMARK   77  A    between atoms: _222  and  _225
REMARK   78  A    between atoms: _225  and  _226
REMARK   79  A    between atoms: _231  and  _232
REMARK   80  A    between atoms: _234  and  _236
REMARK   81  A    between atoms: _236  and  _237
REMARK   82  A    between atoms: _236  and  _239
REMARK   83  A    between atoms: _242  and  _244
REMARK   84  A    between atoms: _244  and  _245
REMARK   85  A    between atoms: _248  and  _250
REMARK   86  A    between atoms: _250  and  _251
REMARK   87  A    between atoms: _250  and  _253
REMARK   88  A    between atoms: _255  and  _257
REMARK   89  A    between atoms: _257  and  _258
REMARK   90  A    between atoms: _257  and  _260
REMARK   91  A    between atoms: _260  and  _261
REMARK   92  A    between atoms: _261  and  _262
REMARK   93  A    between atoms: _266  and  _267
REMARK   94  A    between atoms: _272  and  _274
REMARK   95  A    between atoms: _274  and  _275
REMARK   96  A    between atoms: _274  and  _277
REMARK   97  A    between atoms: _280  and  _282
REMARK   98  A    between atoms: _282  and  _283
REMARK   99  A    between atoms: _282  and  _285
REMARK  100  A    between atoms: _285  and  _286
REMARK  101  A    between atoms: _291  and  _293
REMARK  102  A    between atoms: _293  and  _294
REMARK  103  A    between atoms: _293  and  _296
REMARK  104  A    between atoms: _296  and  _297
REMARK  105  A    between atoms: _303  and  _305
REMARK  106  A    between atoms: _305  and  _306
REMARK  107  A    between atoms: _305  and  _308
REMARK  108  A    between atoms: _308  and  _309
REMARK  109  A    between atoms: _312  and  _314
REMARK  110  A    between atoms: _314  and  _315
REMARK                            x       y       z     vdW  Elec       q    Type
REMARK                         _______ _______ _______ _____ _____    ______ ____
ROOT
ATOM      1  O   HOH     1      32.553  12.818  20.029  0.00  0.00    +0.000 OA
ENDROOT
TORSDOF 0
REMARK  Name = ../refined-set-2016/1o0f/1o0f_pocket.pdb
REMARK  110 active torsions:
REMARK  status: ('A' for Active; 'I' for Inactive)
REMARK    1  A    between atoms: _1  and  _3
REMARK    2  A    between atoms: _3  and  _4
REMARK    3  A    between atoms: _7  and  _9
REMARK    4  A    between atoms: _9  and  _10
REMARK    5  A    between atoms: _9  and  _12
REMARK    6  A    between atoms: _12  and  _13
REMARK    7  A    between atoms: _13  and  _14
REMARK    8  A    between atoms: _14  and  _15
REMARK    9  A    between atoms: _15  and  _16
REMARK   10  A    between atoms: _20  and  _22
REMARK   11  A    between atoms: _22  and  _23
REMARK   12  A    between atoms: _22  and  _25
REMARK   13  A    between atoms: _25  and  _26
REMARK   14  A    between atoms: _32  and  _34
REMARK   15  A    between atoms: _34  and  _35
REMARK   16  A    between atoms: _34  and  _37
REMARK   17  A    between atoms: _37  and  _38
REMARK   18  A    between atoms: _38  and  _39
REMARK   19  A    between atoms: _39  and  _40
REMARK   20  A    between atoms: _49  and  _51
REMARK   21  A    between atoms: _51  and  _52
REMARK   22  A    between atoms: _51  and  _54
REMARK   23  A    between atoms: _54  and  _55
REMARK   24  A    between atoms: _55  and  _56
REMARK   25  A    between atoms: _61  and  _63
REMARK   26  A    between atoms: _63  and  _64
REMARK   27  A    between atoms: _63  and  _66
REMARK   28  A    between atoms: _66  and  _67
REMARK   29  A    between atoms: _72  and  _74
REMARK   30  A    between atoms: _74  and  _75
REMARK   31  A    between atoms: _74  and  _77
REMARK   32  A    between atoms: _77  and  _78
REMARK   33  A    between atoms: _81  and  _83
REMARK   34  A    between atoms: _83  and  _84
REMARK   35  A    between atoms: _83  and  _86
REMARK   36  A    between atoms: _86  and  _87
REMARK   37  A    between atoms: _87  and  _88
REMARK   38  A    between atoms: _88  and  _89
REMARK   39  A    between atoms: _98  and  _100
REMARK   40  A    between atoms: _100  and  _101
REMARK   41  A    between atoms: _100  and  _103
REMARK   42  A    between atoms: _103  and  _104
REMARK   43  A    between atoms: _104  and  _105
REMARK   44  A    between atoms: _105  and  _106
REMARK   45  A    between atoms: _106  and  _107
REMARK   46  A    between atoms: _111  and  _113
REMARK   47  A    between atoms: _113  and  _114
REMARK   48  A    between atoms: _113  and  _116
REMARK   49  A    between atoms: _119  and  _121
REMARK   50  A    between atoms: _121  and  _122
REMARK   51  A    between atoms: _121  and  _124
REMARK   52  A    between atoms: _124  and  _125
REMARK   53  A    between atoms: _130  and  _132
REMARK   54  A    between atoms: _132  and  _133
REMARK   55  A    between atoms: _132  and  _135
REMARK   56  A    between atoms: _135  and  _136
REMARK   57  A    between atoms: _139  and  _141
REMARK   58  A    between atoms: _141  and  _142
REMARK   59  A    between atoms: _145  and  _147
REMARK   60  A    between atoms: _154  and  _157
REMARK   61  A    between atoms: _157  and  _158
REMARK   62  A    between atoms: _158  and  _159
REMARK   63  A    between atoms: _159  and  _160
REMARK   64  A    between atoms: _160  and  _161
REMARK   65  A    between atoms: _167  and  _170
REMARK   66  A    between atoms: _170  and  _171
REMARK   67  A    between atoms: _183  and  _186
REMARK   68  A    between atoms: _186  and  _187
REMARK   69  A    between atoms: _187  and  _188
REMARK   70  A    between atoms: _195  and  _198
REMARK   71  A    between atoms: _198  and  _199
REMARK   72  A    between atoms: _204  and  _207
REMARK   73  A    between atoms: _207  and  _208
REMARK   74  A    between atoms: _215  and  _216
REMARK   75  A    between atoms: _220  and  _222
REMARK   76  A    between atoms: _222  and  _223
REMARK   77  A    between atoms: _222  and  _225
REMARK   78  A    between atoms: _225  and  _226
REMARK   79  A    between atoms: _231  and  _232
REMARK   80  A    between atoms: _234  and  _236
REMARK   81  A    between atoms: _236  and  _237
REMARK   82  A    between atoms: _236  and  _239
REMARK   83  A    between atoms: _242  and  _244
REMARK   84  A    between atoms: _244  and  _245
REMARK   85  A    between atoms: _248  and  _250
REMARK   86  A    between atoms: _250  and  _251
REMARK   87  A    between atoms: _250  and  _253
REMARK   88  A    between atoms: _255  and  _257
REMARK   89  A    between atoms: _257  and  _258
REMARK   90  A    between atoms: _257  and  _260
REMARK   91  A    between atoms: _260  and  _261
REMARK   92  A    between atoms: _261  and  _262
REMARK   93  A    between atoms: _266  and  _267
REMARK   94  A    between atoms: _272  and  _274
REMARK   95  A    between atoms: _274  and  _275
REMARK   96  A    between atoms: _274  and  _277
REMARK   97  A    between atoms: _280  and  _282
REMARK   98  A    between atoms: _282  and  _283
REMARK   99  A    between atoms: _282  and  _285
REMARK  100  A    between atoms: _285  and  _286
REMARK  101  A    between atoms: _291  and  _293
REMARK  102  A    between atoms: _293  and  _294
REMARK  103  A    between atoms: _293  and  _296
REMARK  104  A    between atoms: _296  and  _297
REMARK  105  A    between atoms: _303  and  _305
REMARK  106  A    between atoms: _305  and  _306
REMARK  107  A    between atoms: _305  and  _308
REMARK  108  A    between atoms: _308  and  _309
REMARK  109  A    between atoms: _312  and  _314
REMARK  110  A    between atoms: _314  and  _315
REMARK                            x       y       z     vdW  Elec       q    Type
REMARK                         _______ _______ _______ _____ _____    ______ ____
ROOT
ATOM      1  O   HOH     1      35.523  10.057  19.242  0.00  0.00    +0.000 OA
ENDROOT
TORSDOF 0
REMARK  Name = ../refined-set-2016/1o0f/1o0f_pocket.pdb
REMARK  110 active torsions:
REMARK  status: ('A' for Active; 'I' for Inactive)
REMARK    1  A    between atoms: _1  and  _3
REMARK    2  A    between atoms: _3  and  _4
REMARK    3  A    between atoms: _7  and  _9
REMARK    4  A    between atoms: _9  and  _10
REMARK    5  A    between atoms: _9  and  _12
REMARK    6  A    between atoms: _12  and  _13
REMARK    7  A    between atoms: _13  and  _14
REMARK    8  A    between atoms: _14  and  _15
REMARK    9  A    between atoms: _15  and  _16
REMARK   10  A    between atoms: _20  and  _22
REMARK   11  A    between atoms: _22  and  _23
REMARK   12  A    between atoms: _22  and  _25
REMARK   13  A    between atoms: _25  and  _26
REMARK   14  A    between atoms: _32  and  _34
REMARK   15  A    between atoms: _34  and  _35
REMARK   16  A    between atoms: _34  and  _37
REMARK   17  A    between atoms: _37  and  _38
REMARK   18  A    between atoms: _38  and  _39
REMARK   19  A    between atoms: _39  and  _40
REMARK   20  A    between atoms: _49  and  _51
REMARK   21  A    between atoms: _51  and  _52
REMARK   22  A    between atoms: _51  and  _54
REMARK   23  A    between atoms: _54  and  _55
REMARK   24  A    between atoms: _55  and  _56
REMARK   25  A    between atoms: _61  and  _63
REMARK   26  A    between atoms: _63  and  _64
REMARK   27  A    between atoms: _63  and  _66
REMARK   28  A    between atoms: _66  and  _67
REMARK   29  A    between atoms: _72  and  _74
REMARK   30  A    between atoms: _74  and  _75
REMARK   31  A    between atoms: _74  and  _77
REMARK   32  A    between atoms: _77  and  _78
REMARK   33  A    between atoms: _81  and  _83
REMARK   34  A    between atoms: _83  and  _84
REMARK   35  A    between atoms: _83  and  _86
REMARK   36  A    between atoms: _86  and  _87
REMARK   37  A    between atoms: _87  and  _88
REMARK   38  A    between atoms: _88  and  _89
REMARK   39  A    between atoms: _98  and  _100
REMARK   40  A    between atoms: _100  and  _101
REMARK   41  A    between atoms: _100  and  _103
REMARK   42  A    between atoms: _103  and  _104
REMARK   43  A    between atoms: _104  and  _105
REMARK   44  A    between atoms: _105  and  _106
REMARK   45  A    between atoms: _106  and  _107
REMARK   46  A    between atoms: _111  and  _113
REMARK   47  A    between atoms: _113  and  _114
REMARK   48  A    between atoms: _113  and  _116
REMARK   49  A    between atoms: _119  and  _121
REMARK   50  A    between atoms: _121  and  _122
REMARK   51  A    between atoms: _121  and  _124
REMARK   52  A    between atoms: _124  and  _125
REMARK   53  A    between atoms: _130  and  _132
REMARK   54  A    between atoms: _132  and  _133
REMARK   55  A    between atoms: _132  and  _135
REMARK   56  A    between atoms: _135  and  _136
REMARK   57  A    between atoms: _139  and  _141
REMARK   58  A    between atoms: _141  and  _142
REMARK   59  A    between atoms: _145  and  _147
REMARK   60  A    between atoms: _154  and  _157
REMARK   61  A    between atoms: _157  and  _158
REMARK   62  A    between atoms: _158  and  _159
REMARK   63  A    between atoms: _159  and  _160
REMARK   64  A    between atoms: _160  and  _161
REMARK   65  A    between atoms: _167  and  _170
REMARK   66  A    between atoms: _170  and  _171
REMARK   67  A    between atoms: _183  and  _186
REMARK   68  A    between atoms: _186  and  _187
REMARK   69  A    between atoms: _187  and  _188
REMARK   70  A    between atoms: _195  and  _198
REMARK   71  A    between atoms: _198  and  _199
REMARK   72  A    between atoms: _204  and  _207
REMARK   73  A    between atoms: _207  and  _208
REMARK   74  A    between atoms: _215  and  _216
REMARK   75  A    between atoms: _220  and  _222
REMARK   76  A    between atoms: _222  and  _223
REMARK   77  A    between atoms: _222  and  _225
REMARK   78  A    between atoms: _225  and  _226
REMARK   79  A    between atoms: _231  and  _232
REMARK   80  A    between atoms: _234  and  _236
REMARK   81  A    between atoms: _236  and  _237
REMARK   82  A    between atoms: _236  and  _239
REMARK   83  A    between atoms: _242  and  _244
REMARK   84  A    between atoms: _244  and  _245
REMARK   85  A    between atoms: _248  and  _250
REMARK   86  A    between atoms: _250  and  _251
REMARK   87  A    between atoms: _250  and  _253
REMARK   88  A    between atoms: _255  and  _257
REMARK   89  A    between atoms: _257  and  _258
REMARK   90  A    between atoms: _257  and  _260
REMARK   91  A    between atoms: _260  and  _261
REMARK   92  A    between atoms: _261  and  _262
REMARK   93  A    between atoms: _266  and  _267
REMARK   94  A    between atoms: _272  and  _274
REMARK   95  A    between atoms: _274  and  _275
REMARK   96  A    between atoms: _274  and  _277
REMARK   97  A    between atoms: _280  and  _282
REMARK   98  A    between atoms: _282  and  _283
REMARK   99  A    between atoms: _282  and  _285
REMARK  100  A    between atoms: _285  and  _286
REMARK  101  A    between atoms: _291  and  _293
REMARK  102  A    between atoms: _293  and  _294
REMARK  103  A    between atoms: _293  and  _296
REMARK  104  A    between atoms: _296  and  _297
REMARK  105  A    between atoms: _303  and  _305
REMARK  106  A    between atoms: _305  and  _306
REMARK  107  A    between atoms: _305  and  _308
REMARK  108  A    between atoms: _308  and  _309
REMARK  109  A    between atoms: _312  and  _314
REMARK  110  A    between atoms: _314  and  _315
REMARK                            x       y       z     vdW  Elec       q    Type
REMARK                         _______ _______ _______ _____ _____    ______ ____
ROOT
ATOM      1  O   HOH     1      36.196   7.884  17.798  0.00  0.00    +0.000 OA
ENDROOT
TORSDOF 0
REMARK  Name = ../refined-set-2016/1o0f/1o0f_pocket.pdb
REMARK  110 active torsions:
REMARK  status: ('A' for Active; 'I' for Inactive)
REMARK    1  A    between atoms: _1  and  _3
REMARK    2  A    between atoms: _3  and  _4
REMARK    3  A    between atoms: _7  and  _9
REMARK    4  A    between atoms: _9  and  _10
REMARK    5  A    between atoms: _9  and  _12
REMARK    6  A    between atoms: _12  and  _13
REMARK    7  A    between atoms: _13  and  _14
REMARK    8  A    between atoms: _14  and  _15
REMARK    9  A    between atoms: _15  and  _16
REMARK   10  A    between atoms: _20  and  _22
REMARK   11  A    between atoms: _22  and  _23
REMARK   12  A    between atoms: _22  and  _25
REMARK   13  A    between atoms: _25  and  _26
REMARK   14  A    between atoms: _32  and  _34
REMARK   15  A    between atoms: _34  and  _35
REMARK   16  A    between atoms: _34  and  _37
REMARK   17  A    between atoms: _37  and  _38
REMARK   18  A    between atoms: _38  and  _39
REMARK   19  A    between atoms: _39  and  _40
REMARK   20  A    between atoms: _49  and  _51
REMARK   21  A    between atoms: _51  and  _52
REMARK   22  A    between atoms: _51  and  _54
REMARK   23  A    between atoms: _54  and  _55
REMARK   24  A    between atoms: _55  and  _56
REMARK   25  A    between atoms: _61  and  _63
REMARK   26  A    between atoms: _63  and  _64
REMARK   27  A    between atoms: _63  and  _66
REMARK   28  A    between atoms: _66  and  _67
REMARK   29  A    between atoms: _72  and  _74
REMARK   30  A    between atoms: _74  and  _75
REMARK   31  A    between atoms: _74  and  _77
REMARK   32  A    between atoms: _77  and  _78
REMARK   33  A    between atoms: _81  and  _83
REMARK   34  A    between atoms: _83  and  _84
REMARK   35  A    between atoms: _83  and  _86
REMARK   36  A    between atoms: _86  and  _87
REMARK   37  A    between atoms: _87  and  _88
REMARK   38  A    between atoms: _88  and  _89
REMARK   39  A    between atoms: _98  and  _100
REMARK   40  A    between atoms: _100  and  _101
REMARK   41  A    between atoms: _100  and  _103
REMARK   42  A    between atoms: _103  and  _104
REMARK   43  A    between atoms: _104  and  _105
REMARK   44  A    between atoms: _105  and  _106
REMARK   45  A    between atoms: _106  and  _107
REMARK   46  A    between atoms: _111  and  _113
REMARK   47  A    between atoms: _113  and  _114
REMARK   48  A    between atoms: _113  and  _116
REMARK   49  A    between atoms: _119  and  _121
REMARK   50  A    between atoms: _121  and  _122
REMARK   51  A    between atoms: _121  and  _124
REMARK   52  A    between atoms: _124  and  _125
REMARK   53  A    between atoms: _130  and  _132
REMARK   54  A    between atoms: _132  and  _133
REMARK   55  A    between atoms: _132  and  _135
REMARK   56  A    between atoms: _135  and  _136
REMARK   57  A    between atoms: _139  and  _141
REMARK   58  A    between atoms: _141  and  _142
REMARK   59  A    between atoms: _145  and  _147
REMARK   60  A    between atoms: _154  and  _157
REMARK   61  A    between atoms: _157  and  _158
REMARK   62  A    between atoms: _158  and  _159
REMARK   63  A    between atoms: _159  and  _160
REMARK   64  A    between atoms: _160  and  _161
REMARK   65  A    between atoms: _167  and  _170
REMARK   66  A    between atoms: _170  and  _171
REMARK   67  A    between atoms: _183  and  _186
REMARK   68  A    between atoms: _186  and  _187
REMARK   69  A    between atoms: _187  and  _188
REMARK   70  A    between atoms: _195  and  _198
REMARK   71  A    between atoms: _198  and  _199
REMARK   72  A    between atoms: _204  and  _207
REMARK   73  A    between atoms: _207  and  _208
REMARK   74  A    between atoms: _215  and  _216
REMARK   75  A    between atoms: _220  and  _222
REMARK   76  A    between atoms: _222  and  _223
REMARK   77  A    between atoms: _222  and  _225
REMARK   78  A    between atoms: _225  and  _226
REMARK   79  A    between atoms: _231  and  _232
REMARK   80  A    between atoms: _234  and  _236
REMARK   81  A    between atoms: _236  and  _237
REMARK   82  A    between atoms: _236  and  _239
REMARK   83  A    between atoms: _242  and  _244
REMARK   84  A    between atoms: _244  and  _245
REMARK   85  A    between atoms: _248  and  _250
REMARK   86  A    between atoms: _250  and  _251
REMARK   87  A    between atoms: _250  and  _253
REMARK   88  A    between atoms: _255  and  _257
REMARK   89  A    between atoms: _257  and  _258
REMARK   90  A    between atoms: _257  and  _260
REMARK   91  A    between atoms: _260  and  _261
REMARK   92  A    between atoms: _261  and  _262
REMARK   93  A    between atoms: _266  and  _267
REMARK   94  A    between atoms: _272  and  _274
REMARK   95  A    between atoms: _274  and  _275
REMARK   96  A    between atoms: _274  and  _277
REMARK   97  A    between atoms: _280  and  _282
REMARK   98  A    between atoms: _282  and  _283
REMARK   99  A    between atoms: _282  and  _285
REMARK  100  A    between atoms: _285  and  _286
REMARK  101  A    between atoms: _291  and  _293
REMARK  102  A    between atoms: _293  and  _294
REMARK  103  A    between atoms: _293  and  _296
REMARK  104  A    between atoms: _296  and  _297
REMARK  105  A    between atoms: _303  and  _305
REMARK  106  A    between atoms: _305  and  _306
REMARK  107  A    between atoms: _305  and  _308
REMARK  108  A    between atoms: _308  and  _309
REMARK  109  A    between atoms: _312  and  _314
REMARK  110  A    between atoms: _314  and  _315
REMARK                            x       y       z     vdW  Elec       q    Type
REMARK                         _______ _______ _______ _____ _____    ______ ____
ROOT
ATOM      1  O   HOH     1      34.254   8.499  14.015  0.00  0.00    +0.000 OA
ENDROOT
TORSDOF 0
REMARK  Name = ../refined-set-2016/1o0f/1o0f_pocket.pdb
REMARK  110 active torsions:
REMARK  status: ('A' for Active; 'I' for Inactive)
REMARK    1  A    between atoms: _1  and  _3
REMARK    2  A    between atoms: _3  and  _4
REMARK    3  A    between atoms: _7  and  _9
REMARK    4  A    between atoms: _9  and  _10
REMARK    5  A    between atoms: _9  and  _12
REMARK    6  A    between atoms: _12  and  _13
REMARK    7  A    between atoms: _13  and  _14
REMARK    8  A    between atoms: _14  and  _15
REMARK    9  A    between atoms: _15  and  _16
REMARK   10  A    between atoms: _20  and  _22
REMARK   11  A    between atoms: _22  and  _23
REMARK   12  A    between atoms: _22  and  _25
REMARK   13  A    between atoms: _25  and  _26
REMARK   14  A    between atoms: _32  and  _34
REMARK   15  A    between atoms: _34  and  _35
REMARK   16  A    between atoms: _34  and  _37
REMARK   17  A    between atoms: _37  and  _38
REMARK   18  A    between atoms: _38  and  _39
REMARK   19  A    between atoms: _39  and  _40
REMARK   20  A    between atoms: _49  and  _51
REMARK   21  A    between atoms: _51  and  _52
REMARK   22  A    between atoms: _51  and  _54
REMARK   23  A    between atoms: _54  and  _55
REMARK   24  A    between atoms: _55  and  _56
REMARK   25  A    between atoms: _61  and  _63
REMARK   26  A    between atoms: _63  and  _64
REMARK   27  A    between atoms: _63  and  _66
REMARK   28  A    between atoms: _66  and  _67
REMARK   29  A    between atoms: _72  and  _74
REMARK   30  A    between atoms: _74  and  _75
REMARK   31  A    between atoms: _74  and  _77
REMARK   32  A    between atoms: _77  and  _78
REMARK   33  A    between atoms: _81  and  _83
REMARK   34  A    between atoms: _83  and  _84
REMARK   35  A    between atoms: _83  and  _86
REMARK   36  A    between atoms: _86  and  _87
REMARK   37  A    between atoms: _87  and  _88
REMARK   38  A    between atoms: _88  and  _89
REMARK   39  A    between atoms: _98  and  _100
REMARK   40  A    between atoms: _100  and  _101
REMARK   41  A    between atoms: _100  and  _103
REMARK   42  A    between atoms: _103  and  _104
REMARK   43  A    between atoms: _104  and  _105
REMARK   44  A    between atoms: _105  and  _106
REMARK   45  A    between atoms: _106  and  _107
REMARK   46  A    between atoms: _111  and  _113
REMARK   47  A    between atoms: _113  and  _114
REMARK   48  A    between atoms: _113  and  _116
REMARK   49  A    between atoms: _119  and  _121
REMARK   50  A    between atoms: _121  and  _122
REMARK   51  A    between atoms: _121  and  _124
REMARK   52  A    between atoms: _124  and  _125
REMARK   53  A    between atoms: _130  and  _132
REMARK   54  A    between atoms: _132  and  _133
REMARK   55  A    between atoms: _132  and  _135
REMARK   56  A    between atoms: _135  and  _136
REMARK   57  A    between atoms: _139  and  _141
REMARK   58  A    between atoms: _141  and  _142
REMARK   59  A    between atoms: _145  and  _147
REMARK   60  A    between atoms: _154  and  _157
REMARK   61  A    between atoms: _157  and  _158
REMARK   62  A    between atoms: _158  and  _159
REMARK   63  A    between atoms: _159  and  _160
REMARK   64  A    between atoms: _160  and  _161
REMARK   65  A    between atoms: _167  and  _170
REMARK   66  A    between atoms: _170  and  _171
REMARK   67  A    between atoms: _183  and  _186
REMARK   68  A    between atoms: _186  and  _187
REMARK   69  A    between atoms: _187  and  _188
REMARK   70  A    between atoms: _195  and  _198
REMARK   71  A    between atoms: _198  and  _199
REMARK   72  A    between atoms: _204  and  _207
REMARK   73  A    between atoms: _207  and  _208
REMARK   74  A    between atoms: _215  and  _216
REMARK   75  A    between atoms: _220  and  _222
REMARK   76  A    between atoms: _222  and  _223
REMARK   77  A    between atoms: _222  and  _225
REMARK   78  A    between atoms: _225  and  _226
REMARK   79  A    between atoms: _231  and  _232
REMARK   80  A    between atoms: _234  and  _236
REMARK   81  A    between atoms: _236  and  _237
REMARK   82  A    between atoms: _236  and  _239
REMARK   83  A    between atoms: _242  and  _244
REMARK   84  A    between atoms: _244  and  _245
REMARK   85  A    between atoms: _248  and  _250
REMARK   86  A    between atoms: _250  and  _251
REMARK   87  A    between atoms: _250  and  _253
REMARK   88  A    between atoms: _255  and  _257
REMARK   89  A    between atoms: _257  and  _258
REMARK   90  A    between atoms: _257  and  _260
REMARK   91  A    between atoms: _260  and  _261
REMARK   92  A    between atoms: _261  and  _262
REMARK   93  A    between atoms: _266  and  _267
REMARK   94  A    between atoms: _272  and  _274
REMARK   95  A    between atoms: _274  and  _275
REMARK   96  A    between atoms: _274  and  _277
REMARK   97  A    between atoms: _280  and  _282
REMARK   98  A    between atoms: _282  and  _283
REMARK   99  A    between atoms: _282  and  _285
REMARK  100  A    between atoms: _285  and  _286
REMARK  101  A    between atoms: _291  and  _293
REMARK  102  A    between atoms: _293  and  _294
REMARK  103  A    between atoms: _293  and  _296
REMARK  104  A    between atoms: _296  and  _297
REMARK  105  A    between atoms: _303  and  _305
REMARK  106  A    between atoms: _305  and  _306
REMARK  107  A    between atoms: _305  and  _308
REMARK  108  A    between atoms: _308  and  _309
REMARK  109  A    between atoms: _312  and  _314
REMARK  110  A    between atoms: _314  and  _315
REMARK                            x       y       z     vdW  Elec       q    Type
REMARK                         _______ _______ _______ _____ _____    ______ ____
ROOT
ATOM      1  O   HOH     1      33.739   5.949  12.557  0.00  0.00    +0.000 OA
ENDROOT
TORSDOF 0
REMARK  Name = ../refined-set-2016/1o0f/1o0f_pocket.pdb
REMARK  110 active torsions:
REMARK  status: ('A' for Active; 'I' for Inactive)
REMARK    1  A    between atoms: _1  and  _3
REMARK    2  A    between atoms: _3  and  _4
REMARK    3  A    between atoms: _7  and  _9
REMARK    4  A    between atoms: _9  and  _10
REMARK    5  A    between atoms: _9  and  _12
REMARK    6  A    between atoms: _12  and  _13
REMARK    7  A    between atoms: _13  and  _14
REMARK    8  A    between atoms: _14  and  _15
REMARK    9  A    between atoms: _15  and  _16
REMARK   10  A    between atoms: _20  and  _22
REMARK   11  A    between atoms: _22  and  _23
REMARK   12  A    between atoms: _22  and  _25
REMARK   13  A    between atoms: _25  and  _26
REMARK   14  A    between atoms: _32  and  _34
REMARK   15  A    between atoms: _34  and  _35
REMARK   16  A    between atoms: _34  and  _37
REMARK   17  A    between atoms: _37  and  _38
REMARK   18  A    between atoms: _38  and  _39
REMARK   19  A    between atoms: _39  and  _40
REMARK   20  A    between atoms: _49  and  _51
REMARK   21  A    between atoms: _51  and  _52
REMARK   22  A    between atoms: _51  and  _54
REMARK   23  A    between atoms: _54  and  _55
REMARK   24  A    between atoms: _55  and  _56
REMARK   25  A    between atoms: _61  and  _63
REMARK   26  A    between atoms: _63  and  _64
REMARK   27  A    between atoms: _63  and  _66
REMARK   28  A    between atoms: _66  and  _67
REMARK   29  A    between atoms: _72  and  _74
REMARK   30  A    between atoms: _74  and  _75
REMARK   31  A    between atoms: _74  and  _77
REMARK   32  A    between atoms: _77  and  _78
REMARK   33  A    between atoms: _81  and  _83
REMARK   34  A    between atoms: _83  and  _84
REMARK   35  A    between atoms: _83  and  _86
REMARK   36  A    between atoms: _86  and  _87
REMARK   37  A    between atoms: _87  and  _88
REMARK   38  A    between atoms: _88  and  _89
REMARK   39  A    between atoms: _98  and  _100
REMARK   40  A    between atoms: _100  and  _101
REMARK   41  A    between atoms: _100  and  _103
REMARK   42  A    between atoms: _103  and  _104
REMARK   43  A    between atoms: _104  and  _105
REMARK   44  A    between atoms: _105  and  _106
REMARK   45  A    between atoms: _106  and  _107
REMARK   46  A    between atoms: _111  and  _113
REMARK   47  A    between atoms: _113  and  _114
REMARK   48  A    between atoms: _113  and  _116
REMARK   49  A    between atoms: _119  and  _121
REMARK   50  A    between atoms: _121  and  _122
REMARK   51  A    between atoms: _121  and  _124
REMARK   52  A    between atoms: _124  and  _125
REMARK   53  A    between atoms: _130  and  _132
REMARK   54  A    between atoms: _132  and  _133
REMARK   55  A    between atoms: _132  and  _135
REMARK   56  A    between atoms: _135  and  _136
REMARK   57  A    between atoms: _139  and  _141
REMARK   58  A    between atoms: _141  and  _142
REMARK   59  A    between atoms: _145  and  _147
REMARK   60  A    between atoms: _154  and  _157
REMARK   61  A    between atoms: _157  and  _158
REMARK   62  A    between atoms: _158  and  _159
REMARK   63  A    between atoms: _159  and  _160
REMARK   64  A    between atoms: _160  and  _161
REMARK   65  A    between atoms: _167  and  _170
REMARK   66  A    between atoms: _170  and  _171
REMARK   67  A    between atoms: _183  and  _186
REMARK   68  A    between atoms: _186  and  _187
REMARK   69  A    between atoms: _187  and  _188
REMARK   70  A    between atoms: _195  and  _198
REMARK   71  A    between atoms: _198  and  _199
REMARK   72  A    between atoms: _204  and  _207
REMARK   73  A    between atoms: _207  and  _208
REMARK   74  A    between atoms: _215  and  _216
REMARK   75  A    between atoms: _220  and  _222
REMARK   76  A    between atoms: _222  and  _223
REMARK   77  A    between atoms: _222  and  _225
REMARK   78  A    between atoms: _225  and  _226
REMARK   79  A    between atoms: _231  and  _232
REMARK   80  A    between atoms: _234  and  _236
REMARK   81  A    between atoms: _236  and  _237
REMARK   82  A    between atoms: _236  and  _239
REMARK   83  A    between atoms: _242  and  _244
REMARK   84  A    between atoms: _244  and  _245
REMARK   85  A    between atoms: _248  and  _250
REMARK   86  A    between atoms: _250  and  _251
REMARK   87  A    between atoms: _250  and  _253
REMARK   88  A    between atoms: _255  and  _257
REMARK   89  A    between atoms: _257  and  _258
REMARK   90  A    between atoms: _257  and  _260
REMARK   91  A    between atoms: _260  and  _261
REMARK   92  A    between atoms: _261  and  _262
REMARK   93  A    between atoms: _266  and  _267
REMARK   94  A    between atoms: _272  and  _274
REMARK   95  A    between atoms: _274  and  _275
REMARK   96  A    between atoms: _274  and  _277
REMARK   97  A    between atoms: _280  and  _282
REMARK   98  A    between atoms: _282  and  _283
REMARK   99  A    between atoms: _282  and  _285
REMARK  100  A    between atoms: _285  and  _286
REMARK  101  A    between atoms: _291  and  _293
REMARK  102  A    between atoms: _293  and  _294
REMARK  103  A    between atoms: _293  and  _296
REMARK  104  A    between atoms: _296  and  _297
REMARK  105  A    between atoms: _303  and  _305
REMARK  106  A    between atoms: _305  and  _306
REMARK  107  A    between atoms: _305  and  _308
REMARK  108  A    between atoms: _308  and  _309
REMARK  109  A    between atoms: _312  and  _314
REMARK  110  A    between atoms: _314  and  _315
REMARK                            x       y       z     vdW  Elec       q    Type
REMARK                         _______ _______ _______ _____ _____    ______ ____
ROOT
ATOM      1  O   HOH     1      39.706   4.373  11.901  0.00  0.00    +0.000 OA
ENDROOT
TORSDOF 0
REMARK  Name = ../refined-set-2016/1o0f/1o0f_pocket.pdb
REMARK  110 active torsions:
REMARK  status: ('A' for Active; 'I' for Inactive)
REMARK    1  A    between atoms: _1  and  _3
REMARK    2  A    between atoms: _3  and  _4
REMARK    3  A    between atoms: _7  and  _9
REMARK    4  A    between atoms: _9  and  _10
REMARK    5  A    between atoms: _9  and  _12
REMARK    6  A    between atoms: _12  and  _13
REMARK    7  A    between atoms: _13  and  _14
REMARK    8  A    between atoms: _14  and  _15
REMARK    9  A    between atoms: _15  and  _16
REMARK   10  A    between atoms: _20  and  _22
REMARK   11  A    between atoms: _22  and  _23
REMARK   12  A    between atoms: _22  and  _25
REMARK   13  A    between atoms: _25  and  _26
REMARK   14  A    between atoms: _32  and  _34
REMARK   15  A    between atoms: _34  and  _35
REMARK   16  A    between atoms: _34  and  _37
REMARK   17  A    between atoms: _37  and  _38
REMARK   18  A    between atoms: _38  and  _39
REMARK   19  A    between atoms: _39  and  _40
REMARK   20  A    between atoms: _49  and  _51
REMARK   21  A    between atoms: _51  and  _52
REMARK   22  A    between atoms: _51  and  _54
REMARK   23  A    between atoms: _54  and  _55
REMARK   24  A    between atoms: _55  and  _56
REMARK   25  A    between atoms: _61  and  _63
REMARK   26  A    between atoms: _63  and  _64
REMARK   27  A    between atoms: _63  and  _66
REMARK   28  A    between atoms: _66  and  _67
REMARK   29  A    between atoms: _72  and  _74
REMARK   30  A    between atoms: _74  and  _75
REMARK   31  A    between atoms: _74  and  _77
REMARK   32  A    between atoms: _77  and  _78
REMARK   33  A    between atoms: _81  and  _83
REMARK   34  A    between atoms: _83  and  _84
REMARK   35  A    between atoms: _83  and  _86
REMARK   36  A    between atoms: _86  and  _87
REMARK   37  A    between atoms: _87  and  _88
REMARK   38  A    between atoms: _88  and  _89
REMARK   39  A    between atoms: _98  and  _100
REMARK   40  A    between atoms: _100  and  _101
REMARK   41  A    between atoms: _100  and  _103
REMARK   42  A    between atoms: _103  and  _104
REMARK   43  A    between atoms: _104  and  _105
REMARK   44  A    between atoms: _105  and  _106
REMARK   45  A    between atoms: _106  and  _107
REMARK   46  A    between atoms: _111  and  _113
REMARK   47  A    between atoms: _113  and  _114
REMARK   48  A    between atoms: _113  and  _116
REMARK   49  A    between atoms: _119  and  _121
REMARK   50  A    between atoms: _121  and  _122
REMARK   51  A    between atoms: _121  and  _124
REMARK   52  A    between atoms: _124  and  _125
REMARK   53  A    between atoms: _130  and  _132
REMARK   54  A    between atoms: _132  and  _133
REMARK   55  A    between atoms: _132  and  _135
REMARK   56  A    between atoms: _135  and  _136
REMARK   57  A    between atoms: _139  and  _141
REMARK   58  A    between atoms: _141  and  _142
REMARK   59  A    between atoms: _145  and  _147
REMARK   60  A    between atoms: _154  and  _157
REMARK   61  A    between atoms: _157  and  _158
REMARK   62  A    between atoms: _158  and  _159
REMARK   63  A    between atoms: _159  and  _160
REMARK   64  A    between atoms: _160  and  _161
REMARK   65  A    between atoms: _167  and  _170
REMARK   66  A    between atoms: _170  and  _171
REMARK   67  A    between atoms: _183  and  _186
REMARK   68  A    between atoms: _186  and  _187
REMARK   69  A    between atoms: _187  and  _188
REMARK   70  A    between atoms: _195  and  _198
REMARK   71  A    between atoms: _198  and  _199
REMARK   72  A    between atoms: _204  and  _207
REMARK   73  A    between atoms: _207  and  _208
REMARK   74  A    between atoms: _215  and  _216
REMARK   75  A    between atoms: _220  and  _222
REMARK   76  A    between atoms: _222  and  _223
REMARK   77  A    between atoms: _222  and  _225
REMARK   78  A    between atoms: _225  and  _226
REMARK   79  A    between atoms: _231  and  _232
REMARK   80  A    between atoms: _234  and  _236
REMARK   81  A    between atoms: _236  and  _237
REMARK   82  A    between atoms: _236  and  _239
REMARK   83  A    between atoms: _242  and  _244
REMARK   84  A    between atoms: _244  and  _245
REMARK   85  A    between atoms: _248  and  _250
REMARK   86  A    between atoms: _250  and  _251
REMARK   87  A    between atoms: _250  and  _253
REMARK   88  A    between atoms: _255  and  _257
REMARK   89  A    between atoms: _257  and  _258
REMARK   90  A    between atoms: _257  and  _260
REMARK   91  A    between atoms: _260  and  _261
REMARK   92  A    between atoms: _261  and  _262
REMARK   93  A    between atoms: _266  and  _267
REMARK   94  A    between atoms: _272  and  _274
REMARK   95  A    between atoms: _274  and  _275
REMARK   96  A    between atoms: _274  and  _277
REMARK   97  A    between atoms: _280  and  _282
REMARK   98  A    between atoms: _282  and  _283
REMARK   99  A    between atoms: _282  and  _285
REMARK  100  A    between atoms: _285  and  _286
REMARK  101  A    between atoms: _291  and  _293
REMARK  102  A    between atoms: _293  and  _294
REMARK  103  A    between atoms: _293  and  _296
REMARK  104  A    between atoms: _296  and  _297
REMARK  105  A    between atoms: _303  and  _305
REMARK  106  A    between atoms: _305  and  _306
REMARK  107  A    between atoms: _305  and  _308
REMARK  108  A    between atoms: _308  and  _309
REMARK  109  A    between atoms: _312  and  _314
REMARK  110  A    between atoms: _314  and  _315
REMARK                            x       y       z     vdW  Elec       q    Type
REMARK                         _______ _______ _______ _____ _____    ______ ____
ROOT
ATOM      1  O   HOH     1      41.680   3.813   9.729  0.00  0.00    +0.000 OA
ENDROOT
TORSDOF 0
REMARK  Name = ../refined-set-2016/1o0f/1o0f_pocket.pdb
REMARK  110 active torsions:
REMARK  status: ('A' for Active; 'I' for Inactive)
REMARK    1  A    between atoms: _1  and  _3
REMARK    2  A    between atoms: _3  and  _4
REMARK    3  A    between atoms: _7  and  _9
REMARK    4  A    between atoms: _9  and  _10
REMARK    5  A    between atoms: _9  and  _12
REMARK    6  A    between atoms: _12  and  _13
REMARK    7  A    between atoms: _13  and  _14
REMARK    8  A    between atoms: _14  and  _15
REMARK    9  A    between atoms: _15  and  _16
REMARK   10  A    between atoms: _20  and  _22
REMARK   11  A    between atoms: _22  and  _23
REMARK   12  A    between atoms: _22  and  _25
REMARK   13  A    between atoms: _25  and  _26
REMARK   14  A    between atoms: _32  and  _34
REMARK   15  A    between atoms: _34  and  _35
REMARK   16  A    between atoms: _34  and  _37
REMARK   17  A    between atoms: _37  and  _38
REMARK   18  A    between atoms: _38  and  _39
REMARK   19  A    between atoms: _39  and  _40
REMARK   20  A    between atoms: _49  and  _51
REMARK   21  A    between atoms: _51  and  _52
REMARK   22  A    between atoms: _51  and  _54
REMARK   23  A    between atoms: _54  and  _55
REMARK   24  A    between atoms: _55  and  _56
REMARK   25  A    between atoms: _61  and  _63
REMARK   26  A    between atoms: _63  and  _64
REMARK   27  A    between atoms: _63  and  _66
REMARK   28  A    between atoms: _66  and  _67
REMARK   29  A    between atoms: _72  and  _74
REMARK   30  A    between atoms: _74  and  _75
REMARK   31  A    between atoms: _74  and  _77
REMARK   32  A    between atoms: _77  and  _78
REMARK   33  A    between atoms: _81  and  _83
REMARK   34  A    between atoms: _83  and  _84
REMARK   35  A    between atoms: _83  and  _86
REMARK   36  A    between atoms: _86  and  _87
REMARK   37  A    between atoms: _87  and  _88
REMARK   38  A    between atoms: _88  and  _89
REMARK   39  A    between atoms: _98  and  _100
REMARK   40  A    between atoms: _100  and  _101
REMARK   41  A    between atoms: _100  and  _103
REMARK   42  A    between atoms: _103  and  _104
REMARK   43  A    between atoms: _104  and  _105
REMARK   44  A    between atoms: _105  and  _106
REMARK   45  A    between atoms: _106  and  _107
REMARK   46  A    between atoms: _111  and  _113
REMARK   47  A    between atoms: _113  and  _114
REMARK   48  A    between atoms: _113  and  _116
REMARK   49  A    between atoms: _119  and  _121
REMARK   50  A    between atoms: _121  and  _122
REMARK   51  A    between atoms: _121  and  _124
REMARK   52  A    between atoms: _124  and  _125
REMARK   53  A    between atoms: _130  and  _132
REMARK   54  A    between atoms: _132  and  _133
REMARK   55  A    between atoms: _132  and  _135
REMARK   56  A    between atoms: _135  and  _136
REMARK   57  A    between atoms: _139  and  _141
REMARK   58  A    between atoms: _141  and  _142
REMARK   59  A    between atoms: _145  and  _147
REMARK   60  A    between atoms: _154  and  _157
REMARK   61  A    between atoms: _157  and  _158
REMARK   62  A    between atoms: _158  and  _159
REMARK   63  A    between atoms: _159  and  _160
REMARK   64  A    between atoms: _160  and  _161
REMARK   65  A    between atoms: _167  and  _170
REMARK   66  A    between atoms: _170  and  _171
REMARK   67  A    between atoms: _183  and  _186
REMARK   68  A    between atoms: _186  and  _187
REMARK   69  A    between atoms: _187  and  _188
REMARK   70  A    between atoms: _195  and  _198
REMARK   71  A    between atoms: _198  and  _199
REMARK   72  A    between atoms: _204  and  _207
REMARK   73  A    between atoms: _207  and  _208
REMARK   74  A    between atoms: _215  and  _216
REMARK   75  A    between atoms: _220  and  _222
REMARK   76  A    between atoms: _222  and  _223
REMARK   77  A    between atoms: _222  and  _225
REMARK   78  A    between atoms: _225  and  _226
REMARK   79  A    between atoms: _231  and  _232
REMARK   80  A    between atoms: _234  and  _236
REMARK   81  A    between atoms: _236  and  _237
REMARK   82  A    between atoms: _236  and  _239
REMARK   83  A    between atoms: _242  and  _244
REMARK   84  A    between atoms: _244  and  _245
REMARK   85  A    between atoms: _248  and  _250
REMARK   86  A    between atoms: _250  and  _251
REMARK   87  A    between atoms: _250  and  _253
REMARK   88  A    between atoms: _255  and  _257
REMARK   89  A    between atoms: _257  and  _258
REMARK   90  A    between atoms: _257  and  _260
REMARK   91  A    between atoms: _260  and  _261
REMARK   92  A    between atoms: _261  and  _262
REMARK   93  A    between atoms: _266  and  _267
REMARK   94  A    between atoms: _272  and  _274
REMARK   95  A    between atoms: _274  and  _275
REMARK   96  A    between atoms: _274  and  _277
REMARK   97  A    between atoms: _280  and  _282
REMARK   98  A    between atoms: _282  and  _283
REMARK   99  A    between atoms: _282  and  _285
REMARK  100  A    between atoms: _285  and  _286
REMARK  101  A    between atoms: _291  and  _293
REMARK  102  A    between atoms: _293  and  _294
REMARK  103  A    between atoms: _293  and  _296
REMARK  104  A    between atoms: _296  and  _297
REMARK  105  A    between atoms: _303  and  _305
REMARK  106  A    between atoms: _305  and  _306
REMARK  107  A    between atoms: _305  and  _308
REMARK  108  A    between atoms: _308  and  _309
REMARK  109  A    between atoms: _312  and  _314
REMARK  110  A    between atoms: _314  and  _315
REMARK                            x       y       z     vdW  Elec       q    Type
REMARK                         _______ _______ _______ _____ _____    ______ ____
ROOT
ATOM      1  O   HOH     1      42.313   1.209  10.366  0.00  0.00    +0.000 OA
ENDROOT
TORSDOF 0
REMARK  Name = ../refined-set-2016/1o0f/1o0f_pocket.pdb
REMARK  110 active torsions:
REMARK  status: ('A' for Active; 'I' for Inactive)
REMARK    1  A    between atoms: _1  and  _3
REMARK    2  A    between atoms: _3  and  _4
REMARK    3  A    between atoms: _7  and  _9
REMARK    4  A    between atoms: _9  and  _10
REMARK    5  A    between atoms: _9  and  _12
REMARK    6  A    between atoms: _12  and  _13
REMARK    7  A    between atoms: _13  and  _14
REMARK    8  A    between atoms: _14  and  _15
REMARK    9  A    between atoms: _15  and  _16
REMARK   10  A    between atoms: _20  and  _22
REMARK   11  A    between atoms: _22  and  _23
REMARK   12  A    between atoms: _22  and  _25
REMARK   13  A    between atoms: _25  and  _26
REMARK   14  A    between atoms: _32  and  _34
REMARK   15  A    between atoms: _34  and  _35
REMARK   16  A    between atoms: _34  and  _37
REMARK   17  A    between atoms: _37  and  _38
REMARK   18  A    between atoms: _38  and  _39
REMARK   19  A    between atoms: _39  and  _40
REMARK   20  A    between atoms: _49  and  _51
REMARK   21  A    between atoms: _51  and  _52
REMARK   22  A    between atoms: _51  and  _54
REMARK   23  A    between atoms: _54  and  _55
REMARK   24  A    between atoms: _55  and  _56
REMARK   25  A    between atoms: _61  and  _63
REMARK   26  A    between atoms: _63  and  _64
REMARK   27  A    between atoms: _63  and  _66
REMARK   28  A    between atoms: _66  and  _67
REMARK   29  A    between atoms: _72  and  _74
REMARK   30  A    between atoms: _74  and  _75
REMARK   31  A    between atoms: _74  and  _77
REMARK   32  A    between atoms: _77  and  _78
REMARK   33  A    between atoms: _81  and  _83
REMARK   34  A    between atoms: _83  and  _84
REMARK   35  A    between atoms: _83  and  _86
REMARK   36  A    between atoms: _86  and  _87
REMARK   37  A    between atoms: _87  and  _88
REMARK   38  A    between atoms: _88  and  _89
REMARK   39  A    between atoms: _98  and  _100
REMARK   40  A    between atoms: _100  and  _101
REMARK   41  A    between atoms: _100  and  _103
REMARK   42  A    between atoms: _103  and  _104
REMARK   43  A    between atoms: _104  and  _105
REMARK   44  A    between atoms: _105  and  _106
REMARK   45  A    between atoms: _106  and  _107
REMARK   46  A    between atoms: _111  and  _113
REMARK   47  A    between atoms: _113  and  _114
REMARK   48  A    between atoms: _113  and  _116
REMARK   49  A    between atoms: _119  and  _121
REMARK   50  A    between atoms: _121  and  _122
REMARK   51  A    between atoms: _121  and  _124
REMARK   52  A    between atoms: _124  and  _125
REMARK   53  A    between atoms: _130  and  _132
REMARK   54  A    between atoms: _132  and  _133
REMARK   55  A    between atoms: _132  and  _135
REMARK   56  A    between atoms: _135  and  _136
REMARK   57  A    between atoms: _139  and  _141
REMARK   58  A    between atoms: _141  and  _142
REMARK   59  A    between atoms: _145  and  _147
REMARK   60  A    between atoms: _154  and  _157
REMARK   61  A    between atoms: _157  and  _158
REMARK   62  A    between atoms: _158  and  _159
REMARK   63  A    between atoms: _159  and  _160
REMARK   64  A    between atoms: _160  and  _161
REMARK   65  A    between atoms: _167  and  _170
REMARK   66  A    between atoms: _170  and  _171
REMARK   67  A    between atoms: _183  and  _186
REMARK   68  A    between atoms: _186  and  _187
REMARK   69  A    between atoms: _187  and  _188
REMARK   70  A    between atoms: _195  and  _198
REMARK   71  A    between atoms: _198  and  _199
REMARK   72  A    between atoms: _204  and  _207
REMARK   73  A    between atoms: _207  and  _208
REMARK   74  A    between atoms: _215  and  _216
REMARK   75  A    between atoms: _220  and  _222
REMARK   76  A    between atoms: _222  and  _223
REMARK   77  A    between atoms: _222  and  _225
REMARK   78  A    between atoms: _225  and  _226
REMARK   79  A    between atoms: _231  and  _232
REMARK   80  A    between atoms: _234  and  _236
REMARK   81  A    between atoms: _236  and  _237
REMARK   82  A    between atoms: _236  and  _239
REMARK   83  A    between atoms: _242  and  _244
REMARK   84  A    between atoms: _244  and  _245
REMARK   85  A    between atoms: _248  and  _250
REMARK   86  A    between atoms: _250  and  _251
REMARK   87  A    between atoms: _250  and  _253
REMARK   88  A    between atoms: _255  and  _257
REMARK   89  A    between atoms: _257  and  _258
REMARK   90  A    between atoms: _257  and  _260
REMARK   91  A    between atoms: _260  and  _261
REMARK   92  A    between atoms: _261  and  _262
REMARK   93  A    between atoms: _266  and  _267
REMARK   94  A    between atoms: _272  and  _274
REMARK   95  A    between atoms: _274  and  _275
REMARK   96  A    between atoms: _274  and  _277
REMARK   97  A    between atoms: _280  and  _282
REMARK   98  A    between atoms: _282  and  _283
REMARK   99  A    between atoms: _282  and  _285
REMARK  100  A    between atoms: _285  and  _286
REMARK  101  A    between atoms: _291  and  _293
REMARK  102  A    between atoms: _293  and  _294
REMARK  103  A    between atoms: _293  and  _296
REMARK  104  A    between atoms: _296  and  _297
REMARK  105  A    between atoms: _303  and  _305
REMARK  106  A    between atoms: _305  and  _306
REMARK  107  A    between atoms: _305  and  _308
REMARK  108  A    between atoms: _308  and  _309
REMARK  109  A    between atoms: _312  and  _314
REMARK  110  A    between atoms: _314  and  _315
REMARK                            x       y       z     vdW  Elec       q    Type
REMARK                         _______ _______ _______ _____ _____    ______ ____
ROOT
ATOM      1  O   HOH     1      41.213  -1.261   9.555  0.00  0.00    +0.000 OA
ENDROOT
TORSDOF 0
REMARK  Name = ../refined-set-2016/1o0f/1o0f_pocket.pdb
REMARK  110 active torsions:
REMARK  status: ('A' for Active; 'I' for Inactive)
REMARK    1  A    between atoms: _1  and  _3
REMARK    2  A    between atoms: _3  and  _4
REMARK    3  A    between atoms: _7  and  _9
REMARK    4  A    between atoms: _9  and  _10
REMARK    5  A    between atoms: _9  and  _12
REMARK    6  A    between atoms: _12  and  _13
REMARK    7  A    between atoms: _13  and  _14
REMARK    8  A    between atoms: _14  and  _15
REMARK    9  A    between atoms: _15  and  _16
REMARK   10  A    between atoms: _20  and  _22
REMARK   11  A    between atoms: _22  and  _23
REMARK   12  A    between atoms: _22  and  _25
REMARK   13  A    between atoms: _25  and  _26
REMARK   14  A    between atoms: _32  and  _34
REMARK   15  A    between atoms: _34  and  _35
REMARK   16  A    between atoms: _34  and  _37
REMARK   17  A    between atoms: _37  and  _38
REMARK   18  A    between atoms: _38  and  _39
REMARK   19  A    between atoms: _39  and  _40
REMARK   20  A    between atoms: _49  and  _51
REMARK   21  A    between atoms: _51  and  _52
REMARK   22  A    between atoms: _51  and  _54
REMARK   23  A    between atoms: _54  and  _55
REMARK   24  A    between atoms: _55  and  _56
REMARK   25  A    between atoms: _61  and  _63
REMARK   26  A    between atoms: _63  and  _64
REMARK   27  A    between atoms: _63  and  _66
REMARK   28  A    between atoms: _66  and  _67
REMARK   29  A    between atoms: _72  and  _74
REMARK   30  A    between atoms: _74  and  _75
REMARK   31  A    between atoms: _74  and  _77
REMARK   32  A    between atoms: _77  and  _78
REMARK   33  A    between atoms: _81  and  _83
REMARK   34  A    between atoms: _83  and  _84
REMARK   35  A    between atoms: _83  and  _86
REMARK   36  A    between atoms: _86  and  _87
REMARK   37  A    between atoms: _87  and  _88
REMARK   38  A    between atoms: _88  and  _89
REMARK   39  A    between atoms: _98  and  _100
REMARK   40  A    between atoms: _100  and  _101
REMARK   41  A    between atoms: _100  and  _103
REMARK   42  A    between atoms: _103  and  _104
REMARK   43  A    between atoms: _104  and  _105
REMARK   44  A    between atoms: _105  and  _106
REMARK   45  A    between atoms: _106  and  _107
REMARK   46  A    between atoms: _111  and  _113
REMARK   47  A    between atoms: _113  and  _114
REMARK   48  A    between atoms: _113  and  _116
REMARK   49  A    between atoms: _119  and  _121
REMARK   50  A    between atoms: _121  and  _122
REMARK   51  A    between atoms: _121  and  _124
REMARK   52  A    between atoms: _124  and  _125
REMARK   53  A    between atoms: _130  and  _132
REMARK   54  A    between atoms: _132  and  _133
REMARK   55  A    between atoms: _132  and  _135
REMARK   56  A    between atoms: _135  and  _136
REMARK   57  A    between atoms: _139  and  _141
REMARK   58  A    between atoms: _141  and  _142
REMARK   59  A    between atoms: _145  and  _147
REMARK   60  A    between atoms: _154  and  _157
REMARK   61  A    between atoms: _157  and  _158
REMARK   62  A    between atoms: _158  and  _159
REMARK   63  A    between atoms: _159  and  _160
REMARK   64  A    between atoms: _160  and  _161
REMARK   65  A    between atoms: _167  and  _170
REMARK   66  A    between atoms: _170  and  _171
REMARK   67  A    between atoms: _183  and  _186
REMARK   68  A    between atoms: _186  and  _187
REMARK   69  A    between atoms: _187  and  _188
REMARK   70  A    between atoms: _195  and  _198
REMARK   71  A    between atoms: _198  and  _199
REMARK   72  A    between atoms: _204  and  _207
REMARK   73  A    between atoms: _207  and  _208
REMARK   74  A    between atoms: _215  and  _216
REMARK   75  A    between atoms: _220  and  _222
REMARK   76  A    between atoms: _222  and  _223
REMARK   77  A    between atoms: _222  and  _225
REMARK   78  A    between atoms: _225  and  _226
REMARK   79  A    between atoms: _231  and  _232
REMARK   80  A    between atoms: _234  and  _236
REMARK   81  A    between atoms: _236  and  _237
REMARK   82  A    between atoms: _236  and  _239
REMARK   83  A    between atoms: _242  and  _244
REMARK   84  A    between atoms: _244  and  _245
REMARK   85  A    between atoms: _248  and  _250
REMARK   86  A    between atoms: _250  and  _251
REMARK   87  A    between atoms: _250  and  _253
REMARK   88  A    between atoms: _255  and  _257
REMARK   89  A    between atoms: _257  and  _258
REMARK   90  A    between atoms: _257  and  _260
REMARK   91  A    between atoms: _260  and  _261
REMARK   92  A    between atoms: _261  and  _262
REMARK   93  A    between atoms: _266  and  _267
REMARK   94  A    between atoms: _272  and  _274
REMARK   95  A    between atoms: _274  and  _275
REMARK   96  A    between atoms: _274  and  _277
REMARK   97  A    between atoms: _280  and  _282
REMARK   98  A    between atoms: _282  and  _283
REMARK   99  A    between atoms: _282  and  _285
REMARK  100  A    between atoms: _285  and  _286
REMARK  101  A    between atoms: _291  and  _293
REMARK  102  A    between atoms: _293  and  _294
REMARK  103  A    between atoms: _293  and  _296
REMARK  104  A    between atoms: _296  and  _297
REMARK  105  A    between atoms: _303  and  _305
REMARK  106  A    between atoms: _305  and  _306
REMARK  107  A    between atoms: _305  and  _308
REMARK  108  A    between atoms: _308  and  _309
REMARK  109  A    between atoms: _312  and  _314
REMARK  110  A    between atoms: _314  and  _315
REMARK                            x       y       z     vdW  Elec       q    Type
REMARK                         _______ _______ _______ _____ _____    ______ ____
ROOT
ATOM      1  O   HOH     1      39.171  -1.100  11.127  0.00  0.00    +0.000 OA
ENDROOT
TORSDOF 0
REMARK  Name = ../refined-set-2016/1o0f/1o0f_pocket.pdb
REMARK  110 active torsions:
REMARK  status: ('A' for Active; 'I' for Inactive)
REMARK    1  A    between atoms: _1  and  _3
REMARK    2  A    between atoms: _3  and  _4
REMARK    3  A    between atoms: _7  and  _9
REMARK    4  A    between atoms: _9  and  _10
REMARK    5  A    between atoms: _9  and  _12
REMARK    6  A    between atoms: _12  and  _13
REMARK    7  A    between atoms: _13  and  _14
REMARK    8  A    between atoms: _14  and  _15
REMARK    9  A    between atoms: _15  and  _16
REMARK   10  A    between atoms: _20  and  _22
REMARK   11  A    between atoms: _22  and  _23
REMARK   12  A    between atoms: _22  and  _25
REMARK   13  A    between atoms: _25  and  _26
REMARK   14  A    between atoms: _32  and  _34
REMARK   15  A    between atoms: _34  and  _35
REMARK   16  A    between atoms: _34  and  _37
REMARK   17  A    between atoms: _37  and  _38
REMARK   18  A    between atoms: _38  and  _39
REMARK   19  A    between atoms: _39  and  _40
REMARK   20  A    between atoms: _49  and  _51
REMARK   21  A    between atoms: _51  and  _52
REMARK   22  A    between atoms: _51  and  _54
REMARK   23  A    between atoms: _54  and  _55
REMARK   24  A    between atoms: _55  and  _56
REMARK   25  A    between atoms: _61  and  _63
REMARK   26  A    between atoms: _63  and  _64
REMARK   27  A    between atoms: _63  and  _66
REMARK   28  A    between atoms: _66  and  _67
REMARK   29  A    between atoms: _72  and  _74
REMARK   30  A    between atoms: _74  and  _75
REMARK   31  A    between atoms: _74  and  _77
REMARK   32  A    between atoms: _77  and  _78
REMARK   33  A    between atoms: _81  and  _83
REMARK   34  A    between atoms: _83  and  _84
REMARK   35  A    between atoms: _83  and  _86
REMARK   36  A    between atoms: _86  and  _87
REMARK   37  A    between atoms: _87  and  _88
REMARK   38  A    between atoms: _88  and  _89
REMARK   39  A    between atoms: _98  and  _100
REMARK   40  A    between atoms: _100  and  _101
REMARK   41  A    between atoms: _100  and  _103
REMARK   42  A    between atoms: _103  and  _104
REMARK   43  A    between atoms: _104  and  _105
REMARK   44  A    between atoms: _105  and  _106
REMARK   45  A    between atoms: _106  and  _107
REMARK   46  A    between atoms: _111  and  _113
REMARK   47  A    between atoms: _113  and  _114
REMARK   48  A    between atoms: _113  and  _116
REMARK   49  A    between atoms: _119  and  _121
REMARK   50  A    between atoms: _121  and  _122
REMARK   51  A    between atoms: _121  and  _124
REMARK   52  A    between atoms: _124  and  _125
REMARK   53  A    between atoms: _130  and  _132
REMARK   54  A    between atoms: _132  and  _133
REMARK   55  A    between atoms: _132  and  _135
REMARK   56  A    between atoms: _135  and  _136
REMARK   57  A    between atoms: _139  and  _141
REMARK   58  A    between atoms: _141  and  _142
REMARK   59  A    between atoms: _145  and  _147
REMARK   60  A    between atoms: _154  and  _157
REMARK   61  A    between atoms: _157  and  _158
REMARK   62  A    between atoms: _158  and  _159
REMARK   63  A    between atoms: _159  and  _160
REMARK   64  A    between atoms: _160  and  _161
REMARK   65  A    between atoms: _167  and  _170
REMARK   66  A    between atoms: _170  and  _171
REMARK   67  A    between atoms: _183  and  _186
REMARK   68  A    between atoms: _186  and  _187
REMARK   69  A    between atoms: _187  and  _188
REMARK   70  A    between atoms: _195  and  _198
REMARK   71  A    between atoms: _198  and  _199
REMARK   72  A    between atoms: _204  and  _207
REMARK   73  A    between atoms: _207  and  _208
REMARK   74  A    between atoms: _215  and  _216
REMARK   75  A    between atoms: _220  and  _222
REMARK   76  A    between atoms: _222  and  _223
REMARK   77  A    between atoms: _222  and  _225
REMARK   78  A    between atoms: _225  and  _226
REMARK   79  A    between atoms: _231  and  _232
REMARK   80  A    between atoms: _234  and  _236
REMARK   81  A    between atoms: _236  and  _237
REMARK   82  A    between atoms: _236  and  _239
REMARK   83  A    between atoms: _242  and  _244
REMARK   84  A    between atoms: _244  and  _245
REMARK   85  A    between atoms: _248  and  _250
REMARK   86  A    between atoms: _250  and  _251
REMARK   87  A    between atoms: _250  and  _253
REMARK   88  A    between atoms: _255  and  _257
REMARK   89  A    between atoms: _257  and  _258
REMARK   90  A    between atoms: _257  and  _260
REMARK   91  A    between atoms: _260  and  _261
REMARK   92  A    between atoms: _261  and  _262
REMARK   93  A    between atoms: _266  and  _267
REMARK   94  A    between atoms: _272  and  _274
REMARK   95  A    between atoms: _274  and  _275
REMARK   96  A    between atoms: _274  and  _277
REMARK   97  A    between atoms: _280  and  _282
REMARK   98  A    between atoms: _282  and  _283
REMARK   99  A    between atoms: _282  and  _285
REMARK  100  A    between atoms: _285  and  _286
REMARK  101  A    between atoms: _291  and  _293
REMARK  102  A    between atoms: _293  and  _294
REMARK  103  A    between atoms: _293  and  _296
REMARK  104  A    between atoms: _296  and  _297
REMARK  105  A    between atoms: _303  and  _305
REMARK  106  A    between atoms: _305  and  _306
REMARK  107  A    between atoms: _305  and  _308
REMARK  108  A    between atoms: _308  and  _309
REMARK  109  A    between atoms: _312  and  _314
REMARK  110  A    between atoms: _314  and  _315
REMARK                            x       y       z     vdW  Elec       q    Type
REMARK                         _______ _______ _______ _____ _____    ______ ____
ROOT
ATOM      1  O   HOH     1      36.671   0.306  10.858  0.00  0.00    +0.000 OA
ENDROOT
TORSDOF 0
REMARK  Name = ../refined-set-2016/1o0f/1o0f_pocket.pdb
REMARK  110 active torsions:
REMARK  status: ('A' for Active; 'I' for Inactive)
REMARK    1  A    between atoms: _1  and  _3
REMARK    2  A    between atoms: _3  and  _4
REMARK    3  A    between atoms: _7  and  _9
REMARK    4  A    between atoms: _9  and  _10
REMARK    5  A    between atoms: _9  and  _12
REMARK    6  A    between atoms: _12  and  _13
REMARK    7  A    between atoms: _13  and  _14
REMARK    8  A    between atoms: _14  and  _15
REMARK    9  A    between atoms: _15  and  _16
REMARK   10  A    between atoms: _20  and  _22
REMARK   11  A    between atoms: _22  and  _23
REMARK   12  A    between atoms: _22  and  _25
REMARK   13  A    between atoms: _25  and  _26
REMARK   14  A    between atoms: _32  and  _34
REMARK   15  A    between atoms: _34  and  _35
REMARK   16  A    between atoms: _34  and  _37
REMARK   17  A    between atoms: _37  and  _38
REMARK   18  A    between atoms: _38  and  _39
REMARK   19  A    between atoms: _39  and  _40
REMARK   20  A    between atoms: _49  and  _51
REMARK   21  A    between atoms: _51  and  _52
REMARK   22  A    between atoms: _51  and  _54
REMARK   23  A    between atoms: _54  and  _55
REMARK   24  A    between atoms: _55  and  _56
REMARK   25  A    between atoms: _61  and  _63
REMARK   26  A    between atoms: _63  and  _64
REMARK   27  A    between atoms: _63  and  _66
REMARK   28  A    between atoms: _66  and  _67
REMARK   29  A    between atoms: _72  and  _74
REMARK   30  A    between atoms: _74  and  _75
REMARK   31  A    between atoms: _74  and  _77
REMARK   32  A    between atoms: _77  and  _78
REMARK   33  A    between atoms: _81  and  _83
REMARK   34  A    between atoms: _83  and  _84
REMARK   35  A    between atoms: _83  and  _86
REMARK   36  A    between atoms: _86  and  _87
REMARK   37  A    between atoms: _87  and  _88
REMARK   38  A    between atoms: _88  and  _89
REMARK   39  A    between atoms: _98  and  _100
REMARK   40  A    between atoms: _100  and  _101
REMARK   41  A    between atoms: _100  and  _103
REMARK   42  A    between atoms: _103  and  _104
REMARK   43  A    between atoms: _104  and  _105
REMARK   44  A    between atoms: _105  and  _106
REMARK   45  A    between atoms: _106  and  _107
REMARK   46  A    between atoms: _111  and  _113
REMARK   47  A    between atoms: _113  and  _114
REMARK   48  A    between atoms: _113  and  _116
REMARK   49  A    between atoms: _119  and  _121
REMARK   50  A    between atoms: _121  and  _122
REMARK   51  A    between atoms: _121  and  _124
REMARK   52  A    between atoms: _124  and  _125
REMARK   53  A    between atoms: _130  and  _132
REMARK   54  A    between atoms: _132  and  _133
REMARK   55  A    between atoms: _132  and  _135
REMARK   56  A    between atoms: _135  and  _136
REMARK   57  A    between atoms: _139  and  _141
REMARK   58  A    between atoms: _141  and  _142
REMARK   59  A    between atoms: _145  and  _147
REMARK   60  A    between atoms: _154  and  _157
REMARK   61  A    between atoms: _157  and  _158
REMARK   62  A    between atoms: _158  and  _159
REMARK   63  A    between atoms: _159  and  _160
REMARK   64  A    between atoms: _160  and  _161
REMARK   65  A    between atoms: _167  and  _170
REMARK   66  A    between atoms: _170  and  _171
REMARK   67  A    between atoms: _183  and  _186
REMARK   68  A    between atoms: _186  and  _187
REMARK   69  A    between atoms: _187  and  _188
REMARK   70  A    between atoms: _195  and  _198
REMARK   71  A    between atoms: _198  and  _199
REMARK   72  A    between atoms: _204  and  _207
REMARK   73  A    between atoms: _207  and  _208
REMARK   74  A    between atoms: _215  and  _216
REMARK   75  A    between atoms: _220  and  _222
REMARK   76  A    between atoms: _222  and  _223
REMARK   77  A    between atoms: _222  and  _225
REMARK   78  A    between atoms: _225  and  _226
REMARK   79  A    between atoms: _231  and  _232
REMARK   80  A    between atoms: _234  and  _236
REMARK   81  A    between atoms: _236  and  _237
REMARK   82  A    between atoms: _236  and  _239
REMARK   83  A    between atoms: _242  and  _244
REMARK   84  A    between atoms: _244  and  _245
REMARK   85  A    between atoms: _248  and  _250
REMARK   86  A    between atoms: _250  and  _251
REMARK   87  A    between atoms: _250  and  _253
REMARK   88  A    between atoms: _255  and  _257
REMARK   89  A    between atoms: _257  and  _258
REMARK   90  A    between atoms: _257  and  _260
REMARK   91  A    between atoms: _260  and  _261
REMARK   92  A    between atoms: _261  and  _262
REMARK   93  A    between atoms: _266  and  _267
REMARK   94  A    between atoms: _272  and  _274
REMARK   95  A    between atoms: _274  and  _275
REMARK   96  A    between atoms: _274  and  _277
REMARK   97  A    between atoms: _280  and  _282
REMARK   98  A    between atoms: _282  and  _283
REMARK   99  A    between atoms: _282  and  _285
REMARK  100  A    between atoms: _285  and  _286
REMARK  101  A    between atoms: _291  and  _293
REMARK  102  A    between atoms: _293  and  _294
REMARK  103  A    between atoms: _293  and  _296
REMARK  104  A    between atoms: _296  and  _297
REMARK  105  A    between atoms: _303  and  _305
REMARK  106  A    between atoms: _305  and  _306
REMARK  107  A    between atoms: _305  and  _308
REMARK  108  A    between atoms: _308  and  _309
REMARK  109  A    between atoms: _312  and  _314
REMARK  110  A    between atoms: _314  and  _315
REMARK                            x       y       z     vdW  Elec       q    Type
REMARK                         _______ _______ _______ _____ _____    ______ ____
ROOT
ATOM      1  O   HOH     1      35.693  -0.385  12.876  0.00  0.00    +0.000 OA
ENDROOT
TORSDOF 0
REMARK  Name = ../refined-set-2016/1o0f/1o0f_pocket.pdb
REMARK  110 active torsions:
REMARK  status: ('A' for Active; 'I' for Inactive)
REMARK    1  A    between atoms: _1  and  _3
REMARK    2  A    between atoms: _3  and  _4
REMARK    3  A    between atoms: _7  and  _9
REMARK    4  A    between atoms: _9  and  _10
REMARK    5  A    between atoms: _9  and  _12
REMARK    6  A    between atoms: _12  and  _13
REMARK    7  A    between atoms: _13  and  _14
REMARK    8  A    between atoms: _14  and  _15
REMARK    9  A    between atoms: _15  and  _16
REMARK   10  A    between atoms: _20  and  _22
REMARK   11  A    between atoms: _22  and  _23
REMARK   12  A    between atoms: _22  and  _25
REMARK   13  A    between atoms: _25  and  _26
REMARK   14  A    between atoms: _32  and  _34
REMARK   15  A    between atoms: _34  and  _35
REMARK   16  A    between atoms: _34  and  _37
REMARK   17  A    between atoms: _37  and  _38
REMARK   18  A    between atoms: _38  and  _39
REMARK   19  A    between atoms: _39  and  _40
REMARK   20  A    between atoms: _49  and  _51
REMARK   21  A    between atoms: _51  and  _52
REMARK   22  A    between atoms: _51  and  _54
REMARK   23  A    between atoms: _54  and  _55
REMARK   24  A    between atoms: _55  and  _56
REMARK   25  A    between atoms: _61  and  _63
REMARK   26  A    between atoms: _63  and  _64
REMARK   27  A    between atoms: _63  and  _66
REMARK   28  A    between atoms: _66  and  _67
REMARK   29  A    between atoms: _72  and  _74
REMARK   30  A    between atoms: _74  and  _75
REMARK   31  A    between atoms: _74  and  _77
REMARK   32  A    between atoms: _77  and  _78
REMARK   33  A    between atoms: _81  and  _83
REMARK   34  A    between atoms: _83  and  _84
REMARK   35  A    between atoms: _83  and  _86
REMARK   36  A    between atoms: _86  and  _87
REMARK   37  A    between atoms: _87  and  _88
REMARK   38  A    between atoms: _88  and  _89
REMARK   39  A    between atoms: _98  and  _100
REMARK   40  A    between atoms: _100  and  _101
REMARK   41  A    between atoms: _100  and  _103
REMARK   42  A    between atoms: _103  and  _104
REMARK   43  A    between atoms: _104  and  _105
REMARK   44  A    between atoms: _105  and  _106
REMARK   45  A    between atoms: _106  and  _107
REMARK   46  A    between atoms: _111  and  _113
REMARK   47  A    between atoms: _113  and  _114
REMARK   48  A    between atoms: _113  and  _116
REMARK   49  A    between atoms: _119  and  _121
REMARK   50  A    between atoms: _121  and  _122
REMARK   51  A    between atoms: _121  and  _124
REMARK   52  A    between atoms: _124  and  _125
REMARK   53  A    between atoms: _130  and  _132
REMARK   54  A    between atoms: _132  and  _133
REMARK   55  A    between atoms: _132  and  _135
REMARK   56  A    between atoms: _135  and  _136
REMARK   57  A    between atoms: _139  and  _141
REMARK   58  A    between atoms: _141  and  _142
REMARK   59  A    between atoms: _145  and  _147
REMARK   60  A    between atoms: _154  and  _157
REMARK   61  A    between atoms: _157  and  _158
REMARK   62  A    between atoms: _158  and  _159
REMARK   63  A    between atoms: _159  and  _160
REMARK   64  A    between atoms: _160  and  _161
REMARK   65  A    between atoms: _167  and  _170
REMARK   66  A    between atoms: _170  and  _171
REMARK   67  A    between atoms: _183  and  _186
REMARK   68  A    between atoms: _186  and  _187
REMARK   69  A    between atoms: _187  and  _188
REMARK   70  A    between atoms: _195  and  _198
REMARK   71  A    between atoms: _198  and  _199
REMARK   72  A    between atoms: _204  and  _207
REMARK   73  A    between atoms: _207  and  _208
REMARK   74  A    between atoms: _215  and  _216
REMARK   75  A    between atoms: _220  and  _222
REMARK   76  A    between atoms: _222  and  _223
REMARK   77  A    between atoms: _222  and  _225
REMARK   78  A    between atoms: _225  and  _226
REMARK   79  A    between atoms: _231  and  _232
REMARK   80  A    between atoms: _234  and  _236
REMARK   81  A    between atoms: _236  and  _237
REMARK   82  A    between atoms: _236  and  _239
REMARK   83  A    between atoms: _242  and  _244
REMARK   84  A    between atoms: _244  and  _245
REMARK   85  A    between atoms: _248  and  _250
REMARK   86  A    between atoms: _250  and  _251
REMARK   87  A    between atoms: _250  and  _253
REMARK   88  A    between atoms: _255  and  _257
REMARK   89  A    between atoms: _257  and  _258
REMARK   90  A    between atoms: _257  and  _260
REMARK   91  A    between atoms: _260  and  _261
REMARK   92  A    between atoms: _261  and  _262
REMARK   93  A    between atoms: _266  and  _267
REMARK   94  A    between atoms: _272  and  _274
REMARK   95  A    between atoms: _274  and  _275
REMARK   96  A    between atoms: _274  and  _277
REMARK   97  A    between atoms: _280  and  _282
REMARK   98  A    between atoms: _282  and  _283
REMARK   99  A    between atoms: _282  and  _285
REMARK  100  A    between atoms: _285  and  _286
REMARK  101  A    between atoms: _291  and  _293
REMARK  102  A    between atoms: _293  and  _294
REMARK  103  A    between atoms: _293  and  _296
REMARK  104  A    between atoms: _296  and  _297
REMARK  105  A    between atoms: _303  and  _305
REMARK  106  A    between atoms: _305  and  _306
REMARK  107  A    between atoms: _305  and  _308
REMARK  108  A    between atoms: _308  and  _309
REMARK  109  A    between atoms: _312  and  _314
REMARK  110  A    between atoms: _314  and  _315
REMARK                            x       y       z     vdW  Elec       q    Type
REMARK                         _______ _______ _______ _____ _____    ______ ____
ROOT
ATOM      1  O   HOH     1      36.820  -2.401  13.914  0.00  0.00    +0.000 OA
ENDROOT
TORSDOF 0
REMARK  Name = ../refined-set-2016/1o0f/1o0f_pocket.pdb
REMARK  110 active torsions:
REMARK  status: ('A' for Active; 'I' for Inactive)
REMARK    1  A    between atoms: _1  and  _3
REMARK    2  A    between atoms: _3  and  _4
REMARK    3  A    between atoms: _7  and  _9
REMARK    4  A    between atoms: _9  and  _10
REMARK    5  A    between atoms: _9  and  _12
REMARK    6  A    between atoms: _12  and  _13
REMARK    7  A    between atoms: _13  and  _14
REMARK    8  A    between atoms: _14  and  _15
REMARK    9  A    between atoms: _15  and  _16
REMARK   10  A    between atoms: _20  and  _22
REMARK   11  A    between atoms: _22  and  _23
REMARK   12  A    between atoms: _22  and  _25
REMARK   13  A    between atoms: _25  and  _26
REMARK   14  A    between atoms: _32  and  _34
REMARK   15  A    between atoms: _34  and  _35
REMARK   16  A    between atoms: _34  and  _37
REMARK   17  A    between atoms: _37  and  _38
REMARK   18  A    between atoms: _38  and  _39
REMARK   19  A    between atoms: _39  and  _40
REMARK   20  A    between atoms: _49  and  _51
REMARK   21  A    between atoms: _51  and  _52
REMARK   22  A    between atoms: _51  and  _54
REMARK   23  A    between atoms: _54  and  _55
REMARK   24  A    between atoms: _55  and  _56
REMARK   25  A    between atoms: _61  and  _63
REMARK   26  A    between atoms: _63  and  _64
REMARK   27  A    between atoms: _63  and  _66
REMARK   28  A    between atoms: _66  and  _67
REMARK   29  A    between atoms: _72  and  _74
REMARK   30  A    between atoms: _74  and  _75
REMARK   31  A    between atoms: _74  and  _77
REMARK   32  A    between atoms: _77  and  _78
REMARK   33  A    between atoms: _81  and  _83
REMARK   34  A    between atoms: _83  and  _84
REMARK   35  A    between atoms: _83  and  _86
REMARK   36  A    between atoms: _86  and  _87
REMARK   37  A    between atoms: _87  and  _88
REMARK   38  A    between atoms: _88  and  _89
REMARK   39  A    between atoms: _98  and  _100
REMARK   40  A    between atoms: _100  and  _101
REMARK   41  A    between atoms: _100  and  _103
REMARK   42  A    between atoms: _103  and  _104
REMARK   43  A    between atoms: _104  and  _105
REMARK   44  A    between atoms: _105  and  _106
REMARK   45  A    between atoms: _106  and  _107
REMARK   46  A    between atoms: _111  and  _113
REMARK   47  A    between atoms: _113  and  _114
REMARK   48  A    between atoms: _113  and  _116
REMARK   49  A    between atoms: _119  and  _121
REMARK   50  A    between atoms: _121  and  _122
REMARK   51  A    between atoms: _121  and  _124
REMARK   52  A    between atoms: _124  and  _125
REMARK   53  A    between atoms: _130  and  _132
REMARK   54  A    between atoms: _132  and  _133
REMARK   55  A    between atoms: _132  and  _135
REMARK   56  A    between atoms: _135  and  _136
REMARK   57  A    between atoms: _139  and  _141
REMARK   58  A    between atoms: _141  and  _142
REMARK   59  A    between atoms: _145  and  _147
REMARK   60  A    between atoms: _154  and  _157
REMARK   61  A    between atoms: _157  and  _158
REMARK   62  A    between atoms: _158  and  _159
REMARK   63  A    between atoms: _159  and  _160
REMARK   64  A    between atoms: _160  and  _161
REMARK   65  A    between atoms: _167  and  _170
REMARK   66  A    between atoms: _170  and  _171
REMARK   67  A    between atoms: _183  and  _186
REMARK   68  A    between atoms: _186  and  _187
REMARK   69  A    between atoms: _187  and  _188
REMARK   70  A    between atoms: _195  and  _198
REMARK   71  A    between atoms: _198  and  _199
REMARK   72  A    between atoms: _204  and  _207
REMARK   73  A    between atoms: _207  and  _208
REMARK   74  A    between atoms: _215  and  _216
REMARK   75  A    between atoms: _220  and  _222
REMARK   76  A    between atoms: _222  and  _223
REMARK   77  A    between atoms: _222  and  _225
REMARK   78  A    between atoms: _225  and  _226
REMARK   79  A    between atoms: _231  and  _232
REMARK   80  A    between atoms: _234  and  _236
REMARK   81  A    between atoms: _236  and  _237
REMARK   82  A    between atoms: _236  and  _239
REMARK   83  A    between atoms: _242  and  _244
REMARK   84  A    between atoms: _244  and  _245
REMARK   85  A    between atoms: _248  and  _250
REMARK   86  A    between atoms: _250  and  _251
REMARK   87  A    between atoms: _250  and  _253
REMARK   88  A    between atoms: _255  and  _257
REMARK   89  A    between atoms: _257  and  _258
REMARK   90  A    between atoms: _257  and  _260
REMARK   91  A    between atoms: _260  and  _261
REMARK   92  A    between atoms: _261  and  _262
REMARK   93  A    between atoms: _266  and  _267
REMARK   94  A    between atoms: _272  and  _274
REMARK   95  A    between atoms: _274  and  _275
REMARK   96  A    between atoms: _274  and  _277
REMARK   97  A    between atoms: _280  and  _282
REMARK   98  A    between atoms: _282  and  _283
REMARK   99  A    between atoms: _282  and  _285
REMARK  100  A    between atoms: _285  and  _286
REMARK  101  A    between atoms: _291  and  _293
REMARK  102  A    between atoms: _293  and  _294
REMARK  103  A    between atoms: _293  and  _296
REMARK  104  A    between atoms: _296  and  _297
REMARK  105  A    between atoms: _303  and  _305
REMARK  106  A    between atoms: _305  and  _306
REMARK  107  A    between atoms: _305  and  _308
REMARK  108  A    between atoms: _308  and  _309
REMARK  109  A    between atoms: _312  and  _314
REMARK  110  A    between atoms: _314  and  _315
REMARK                            x       y       z     vdW  Elec       q    Type
REMARK                         _______ _______ _______ _____ _____    ______ ____
ROOT
ATOM      1  O   HOH     1      37.112  -2.433  16.522  0.00  0.00    +0.000 OA
ENDROOT
TORSDOF 0
REMARK  Name = ../refined-set-2016/1o0f/1o0f_pocket.pdb
REMARK  110 active torsions:
REMARK  status: ('A' for Active; 'I' for Inactive)
REMARK    1  A    between atoms: _1  and  _3
REMARK    2  A    between atoms: _3  and  _4
REMARK    3  A    between atoms: _7  and  _9
REMARK    4  A    between atoms: _9  and  _10
REMARK    5  A    between atoms: _9  and  _12
REMARK    6  A    between atoms: _12  and  _13
REMARK    7  A    between atoms: _13  and  _14
REMARK    8  A    between atoms: _14  and  _15
REMARK    9  A    between atoms: _15  and  _16
REMARK   10  A    between atoms: _20  and  _22
REMARK   11  A    between atoms: _22  and  _23
REMARK   12  A    between atoms: _22  and  _25
REMARK   13  A    between atoms: _25  and  _26
REMARK   14  A    between atoms: _32  and  _34
REMARK   15  A    between atoms: _34  and  _35
REMARK   16  A    between atoms: _34  and  _37
REMARK   17  A    between atoms: _37  and  _38
REMARK   18  A    between atoms: _38  and  _39
REMARK   19  A    between atoms: _39  and  _40
REMARK   20  A    between atoms: _49  and  _51
REMARK   21  A    between atoms: _51  and  _52
REMARK   22  A    between atoms: _51  and  _54
REMARK   23  A    between atoms: _54  and  _55
REMARK   24  A    between atoms: _55  and  _56
REMARK   25  A    between atoms: _61  and  _63
REMARK   26  A    between atoms: _63  and  _64
REMARK   27  A    between atoms: _63  and  _66
REMARK   28  A    between atoms: _66  and  _67
REMARK   29  A    between atoms: _72  and  _74
REMARK   30  A    between atoms: _74  and  _75
REMARK   31  A    between atoms: _74  and  _77
REMARK   32  A    between atoms: _77  and  _78
REMARK   33  A    between atoms: _81  and  _83
REMARK   34  A    between atoms: _83  and  _84
REMARK   35  A    between atoms: _83  and  _86
REMARK   36  A    between atoms: _86  and  _87
REMARK   37  A    between atoms: _87  and  _88
REMARK   38  A    between atoms: _88  and  _89
REMARK   39  A    between atoms: _98  and  _100
REMARK   40  A    between atoms: _100  and  _101
REMARK   41  A    between atoms: _100  and  _103
REMARK   42  A    between atoms: _103  and  _104
REMARK   43  A    between atoms: _104  and  _105
REMARK   44  A    between atoms: _105  and  _106
REMARK   45  A    between atoms: _106  and  _107
REMARK   46  A    between atoms: _111  and  _113
REMARK   47  A    between atoms: _113  and  _114
REMARK   48  A    between atoms: _113  and  _116
REMARK   49  A    between atoms: _119  and  _121
REMARK   50  A    between atoms: _121  and  _122
REMARK   51  A    between atoms: _121  and  _124
REMARK   52  A    between atoms: _124  and  _125
REMARK   53  A    between atoms: _130  and  _132
REMARK   54  A    between atoms: _132  and  _133
REMARK   55  A    between atoms: _132  and  _135
REMARK   56  A    between atoms: _135  and  _136
REMARK   57  A    between atoms: _139  and  _141
REMARK   58  A    between atoms: _141  and  _142
REMARK   59  A    between atoms: _145  and  _147
REMARK   60  A    between atoms: _154  and  _157
REMARK   61  A    between atoms: _157  and  _158
REMARK   62  A    between atoms: _158  and  _159
REMARK   63  A    between atoms: _159  and  _160
REMARK   64  A    between atoms: _160  and  _161
REMARK   65  A    between atoms: _167  and  _170
REMARK   66  A    between atoms: _170  and  _171
REMARK   67  A    between atoms: _183  and  _186
REMARK   68  A    between atoms: _186  and  _187
REMARK   69  A    between atoms: _187  and  _188
REMARK   70  A    between atoms: _195  and  _198
REMARK   71  A    between atoms: _198  and  _199
REMARK   72  A    between atoms: _204  and  _207
REMARK   73  A    between atoms: _207  and  _208
REMARK   74  A    between atoms: _215  and  _216
REMARK   75  A    between atoms: _220  and  _222
REMARK   76  A    between atoms: _222  and  _223
REMARK   77  A    between atoms: _222  and  _225
REMARK   78  A    between atoms: _225  and  _226
REMARK   79  A    between atoms: _231  and  _232
REMARK   80  A    between atoms: _234  and  _236
REMARK   81  A    between atoms: _236  and  _237
REMARK   82  A    between atoms: _236  and  _239
REMARK   83  A    between atoms: _242  and  _244
REMARK   84  A    between atoms: _244  and  _245
REMARK   85  A    between atoms: _248  and  _250
REMARK   86  A    between atoms: _250  and  _251
REMARK   87  A    between atoms: _250  and  _253
REMARK   88  A    between atoms: _255  and  _257
REMARK   89  A    between atoms: _257  and  _258
REMARK   90  A    between atoms: _257  and  _260
REMARK   91  A    between atoms: _260  and  _261
REMARK   92  A    between atoms: _261  and  _262
REMARK   93  A    between atoms: _266  and  _267
REMARK   94  A    between atoms: _272  and  _274
REMARK   95  A    between atoms: _274  and  _275
REMARK   96  A    between atoms: _274  and  _277
REMARK   97  A    between atoms: _280  and  _282
REMARK   98  A    between atoms: _282  and  _283
REMARK   99  A    between atoms: _282  and  _285
REMARK  100  A    between atoms: _285  and  _286
REMARK  101  A    between atoms: _291  and  _293
REMARK  102  A    between atoms: _293  and  _294
REMARK  103  A    between atoms: _293  and  _296
REMARK  104  A    between atoms: _296  and  _297
REMARK  105  A    between atoms: _303  and  _305
REMARK  106  A    between atoms: _305  and  _306
REMARK  107  A    between atoms: _305  and  _308
REMARK  108  A    between atoms: _308  and  _309
REMARK  109  A    between atoms: _312  and  _314
REMARK  110  A    between atoms: _314  and  _315
REMARK                            x       y       z     vdW  Elec       q    Type
REMARK                         _______ _______ _______ _____ _____    ______ ____
ROOT
ATOM      1  O   HOH     1      39.306   0.222  14.992  0.00  0.00    +0.000 OA
ENDROOT
TORSDOF 0
REMARK  Name = ../refined-set-2016/1o0f/1o0f_pocket.pdb
REMARK  110 active torsions:
REMARK  status: ('A' for Active; 'I' for Inactive)
REMARK    1  A    between atoms: _1  and  _3
REMARK    2  A    between atoms: _3  and  _4
REMARK    3  A    between atoms: _7  and  _9
REMARK    4  A    between atoms: _9  and  _10
REMARK    5  A    between atoms: _9  and  _12
REMARK    6  A    between atoms: _12  and  _13
REMARK    7  A    between atoms: _13  and  _14
REMARK    8  A    between atoms: _14  and  _15
REMARK    9  A    between atoms: _15  and  _16
REMARK   10  A    between atoms: _20  and  _22
REMARK   11  A    between atoms: _22  and  _23
REMARK   12  A    between atoms: _22  and  _25
REMARK   13  A    between atoms: _25  and  _26
REMARK   14  A    between atoms: _32  and  _34
REMARK   15  A    between atoms: _34  and  _35
REMARK   16  A    between atoms: _34  and  _37
REMARK   17  A    between atoms: _37  and  _38
REMARK   18  A    between atoms: _38  and  _39
REMARK   19  A    between atoms: _39  and  _40
REMARK   20  A    between atoms: _49  and  _51
REMARK   21  A    between atoms: _51  and  _52
REMARK   22  A    between atoms: _51  and  _54
REMARK   23  A    between atoms: _54  and  _55
REMARK   24  A    between atoms: _55  and  _56
REMARK   25  A    between atoms: _61  and  _63
REMARK   26  A    between atoms: _63  and  _64
REMARK   27  A    between atoms: _63  and  _66
REMARK   28  A    between atoms: _66  and  _67
REMARK   29  A    between atoms: _72  and  _74
REMARK   30  A    between atoms: _74  and  _75
REMARK   31  A    between atoms: _74  and  _77
REMARK   32  A    between atoms: _77  and  _78
REMARK   33  A    between atoms: _81  and  _83
REMARK   34  A    between atoms: _83  and  _84
REMARK   35  A    between atoms: _83  and  _86
REMARK   36  A    between atoms: _86  and  _87
REMARK   37  A    between atoms: _87  and  _88
REMARK   38  A    between atoms: _88  and  _89
REMARK   39  A    between atoms: _98  and  _100
REMARK   40  A    between atoms: _100  and  _101
REMARK   41  A    between atoms: _100  and  _103
REMARK   42  A    between atoms: _103  and  _104
REMARK   43  A    between atoms: _104  and  _105
REMARK   44  A    between atoms: _105  and  _106
REMARK   45  A    between atoms: _106  and  _107
REMARK   46  A    between atoms: _111  and  _113
REMARK   47  A    between atoms: _113  and  _114
REMARK   48  A    between atoms: _113  and  _116
REMARK   49  A    between atoms: _119  and  _121
REMARK   50  A    between atoms: _121  and  _122
REMARK   51  A    between atoms: _121  and  _124
REMARK   52  A    between atoms: _124  and  _125
REMARK   53  A    between atoms: _130  and  _132
REMARK   54  A    between atoms: _132  and  _133
REMARK   55  A    between atoms: _132  and  _135
REMARK   56  A    between atoms: _135  and  _136
REMARK   57  A    between atoms: _139  and  _141
REMARK   58  A    between atoms: _141  and  _142
REMARK   59  A    between atoms: _145  and  _147
REMARK   60  A    between atoms: _154  and  _157
REMARK   61  A    between atoms: _157  and  _158
REMARK   62  A    between atoms: _158  and  _159
REMARK   63  A    between atoms: _159  and  _160
REMARK   64  A    between atoms: _160  and  _161
REMARK   65  A    between atoms: _167  and  _170
REMARK   66  A    between atoms: _170  and  _171
REMARK   67  A    between atoms: _183  and  _186
REMARK   68  A    between atoms: _186  and  _187
REMARK   69  A    between atoms: _187  and  _188
REMARK   70  A    between atoms: _195  and  _198
REMARK   71  A    between atoms: _198  and  _199
REMARK   72  A    between atoms: _204  and  _207
REMARK   73  A    between atoms: _207  and  _208
REMARK   74  A    between atoms: _215  and  _216
REMARK   75  A    between atoms: _220  and  _222
REMARK   76  A    between atoms: _222  and  _223
REMARK   77  A    between atoms: _222  and  _225
REMARK   78  A    between atoms: _225  and  _226
REMARK   79  A    between atoms: _231  and  _232
REMARK   80  A    between atoms: _234  and  _236
REMARK   81  A    between atoms: _236  and  _237
REMARK   82  A    between atoms: _236  and  _239
REMARK   83  A    between atoms: _242  and  _244
REMARK   84  A    between atoms: _244  and  _245
REMARK   85  A    between atoms: _248  and  _250
REMARK   86  A    between atoms: _250  and  _251
REMARK   87  A    between atoms: _250  and  _253
REMARK   88  A    between atoms: _255  and  _257
REMARK   89  A    between atoms: _257  and  _258
REMARK   90  A    between atoms: _257  and  _260
REMARK   91  A    between atoms: _260  and  _261
REMARK   92  A    between atoms: _261  and  _262
REMARK   93  A    between atoms: _266  and  _267
REMARK   94  A    between atoms: _272  and  _274
REMARK   95  A    between atoms: _274  and  _275
REMARK   96  A    between atoms: _274  and  _277
REMARK   97  A    between atoms: _280  and  _282
REMARK   98  A    between atoms: _282  and  _283
REMARK   99  A    between atoms: _282  and  _285
REMARK  100  A    between atoms: _285  and  _286
REMARK  101  A    between atoms: _291  and  _293
REMARK  102  A    between atoms: _293  and  _294
REMARK  103  A    between atoms: _293  and  _296
REMARK  104  A    between atoms: _296  and  _297
REMARK  105  A    between atoms: _303  and  _305
REMARK  106  A    between atoms: _305  and  _306
REMARK  107  A    between atoms: _305  and  _308
REMARK  108  A    between atoms: _308  and  _309
REMARK  109  A    between atoms: _312  and  _314
REMARK  110  A    between atoms: _314  and  _315
REMARK                            x       y       z     vdW  Elec       q    Type
REMARK                         _______ _______ _______ _____ _____    ______ ____
ROOT
ATOM      1  O   HOH     1      39.936   0.519  17.502  0.00  0.00    +0.000 OA
ENDROOT
TORSDOF 0
REMARK  Name = ../refined-set-2016/1o0f/1o0f_pocket.pdb
REMARK  110 active torsions:
REMARK  status: ('A' for Active; 'I' for Inactive)
REMARK    1  A    between atoms: _1  and  _3
REMARK    2  A    between atoms: _3  and  _4
REMARK    3  A    between atoms: _7  and  _9
REMARK    4  A    between atoms: _9  and  _10
REMARK    5  A    between atoms: _9  and  _12
REMARK    6  A    between atoms: _12  and  _13
REMARK    7  A    between atoms: _13  and  _14
REMARK    8  A    between atoms: _14  and  _15
REMARK    9  A    between atoms: _15  and  _16
REMARK   10  A    between atoms: _20  and  _22
REMARK   11  A    between atoms: _22  and  _23
REMARK   12  A    between atoms: _22  and  _25
REMARK   13  A    between atoms: _25  and  _26
REMARK   14  A    between atoms: _32  and  _34
REMARK   15  A    between atoms: _34  and  _35
REMARK   16  A    between atoms: _34  and  _37
REMARK   17  A    between atoms: _37  and  _38
REMARK   18  A    between atoms: _38  and  _39
REMARK   19  A    between atoms: _39  and  _40
REMARK   20  A    between atoms: _49  and  _51
REMARK   21  A    between atoms: _51  and  _52
REMARK   22  A    between atoms: _51  and  _54
REMARK   23  A    between atoms: _54  and  _55
REMARK   24  A    between atoms: _55  and  _56
REMARK   25  A    between atoms: _61  and  _63
REMARK   26  A    between atoms: _63  and  _64
REMARK   27  A    between atoms: _63  and  _66
REMARK   28  A    between atoms: _66  and  _67
REMARK   29  A    between atoms: _72  and  _74
REMARK   30  A    between atoms: _74  and  _75
REMARK   31  A    between atoms: _74  and  _77
REMARK   32  A    between atoms: _77  and  _78
REMARK   33  A    between atoms: _81  and  _83
REMARK   34  A    between atoms: _83  and  _84
REMARK   35  A    between atoms: _83  and  _86
REMARK   36  A    between atoms: _86  and  _87
REMARK   37  A    between atoms: _87  and  _88
REMARK   38  A    between atoms: _88  and  _89
REMARK   39  A    between atoms: _98  and  _100
REMARK   40  A    between atoms: _100  and  _101
REMARK   41  A    between atoms: _100  and  _103
REMARK   42  A    between atoms: _103  and  _104
REMARK   43  A    between atoms: _104  and  _105
REMARK   44  A    between atoms: _105  and  _106
REMARK   45  A    between atoms: _106  and  _107
REMARK   46  A    between atoms: _111  and  _113
REMARK   47  A    between atoms: _113  and  _114
REMARK   48  A    between atoms: _113  and  _116
REMARK   49  A    between atoms: _119  and  _121
REMARK   50  A    between atoms: _121  and  _122
REMARK   51  A    between atoms: _121  and  _124
REMARK   52  A    between atoms: _124  and  _125
REMARK   53  A    between atoms: _130  and  _132
REMARK   54  A    between atoms: _132  and  _133
REMARK   55  A    between atoms: _132  and  _135
REMARK   56  A    between atoms: _135  and  _136
REMARK   57  A    between atoms: _139  and  _141
REMARK   58  A    between atoms: _141  and  _142
REMARK   59  A    between atoms: _145  and  _147
REMARK   60  A    between atoms: _154  and  _157
REMARK   61  A    between atoms: _157  and  _158
REMARK   62  A    between atoms: _158  and  _159
REMARK   63  A    between atoms: _159  and  _160
REMARK   64  A    between atoms: _160  and  _161
REMARK   65  A    between atoms: _167  and  _170
REMARK   66  A    between atoms: _170  and  _171
REMARK   67  A    between atoms: _183  and  _186
REMARK   68  A    between atoms: _186  and  _187
REMARK   69  A    between atoms: _187  and  _188
REMARK   70  A    between atoms: _195  and  _198
REMARK   71  A    between atoms: _198  and  _199
REMARK   72  A    between atoms: _204  and  _207
REMARK   73  A    between atoms: _207  and  _208
REMARK   74  A    between atoms: _215  and  _216
REMARK   75  A    between atoms: _220  and  _222
REMARK   76  A    between atoms: _222  and  _223
REMARK   77  A    between atoms: _222  and  _225
REMARK   78  A    between atoms: _225  and  _226
REMARK   79  A    between atoms: _231  and  _232
REMARK   80  A    between atoms: _234  and  _236
REMARK   81  A    between atoms: _236  and  _237
REMARK   82  A    between atoms: _236  and  _239
REMARK   83  A    between atoms: _242  and  _244
REMARK   84  A    between atoms: _244  and  _245
REMARK   85  A    between atoms: _248  and  _250
REMARK   86  A    between atoms: _250  and  _251
REMARK   87  A    between atoms: _250  and  _253
REMARK   88  A    between atoms: _255  and  _257
REMARK   89  A    between atoms: _257  and  _258
REMARK   90  A    between atoms: _257  and  _260
REMARK   91  A    between atoms: _260  and  _261
REMARK   92  A    between atoms: _261  and  _262
REMARK   93  A    between atoms: _266  and  _267
REMARK   94  A    between atoms: _272  and  _274
REMARK   95  A    between atoms: _274  and  _275
REMARK   96  A    between atoms: _274  and  _277
REMARK   97  A    between atoms: _280  and  _282
REMARK   98  A    between atoms: _282  and  _283
REMARK   99  A    between atoms: _282  and  _285
REMARK  100  A    between atoms: _285  and  _286
REMARK  101  A    between atoms: _291  and  _293
REMARK  102  A    between atoms: _293  and  _294
REMARK  103  A    between atoms: _293  and  _296
REMARK  104  A    between atoms: _296  and  _297
REMARK  105  A    between atoms: _303  and  _305
REMARK  106  A    between atoms: _305  and  _306
REMARK  107  A    between atoms: _305  and  _308
REMARK  108  A    between atoms: _308  and  _309
REMARK  109  A    between atoms: _312  and  _314
REMARK  110  A    between atoms: _314  and  _315
REMARK                            x       y       z     vdW  Elec       q    Type
REMARK                         _______ _______ _______ _____ _____    ______ ____
ROOT
ATOM      1  O   HOH     1      39.612  -0.978  19.740  0.00  0.00    +0.000 OA
ENDROOT
TORSDOF 0
REMARK  Name = ../refined-set-2016/1o0f/1o0f_pocket.pdb
REMARK  110 active torsions:
REMARK  status: ('A' for Active; 'I' for Inactive)
REMARK    1  A    between atoms: _1  and  _3
REMARK    2  A    between atoms: _3  and  _4
REMARK    3  A    between atoms: _7  and  _9
REMARK    4  A    between atoms: _9  and  _10
REMARK    5  A    between atoms: _9  and  _12
REMARK    6  A    between atoms: _12  and  _13
REMARK    7  A    between atoms: _13  and  _14
REMARK    8  A    between atoms: _14  and  _15
REMARK    9  A    between atoms: _15  and  _16
REMARK   10  A    between atoms: _20  and  _22
REMARK   11  A    between atoms: _22  and  _23
REMARK   12  A    between atoms: _22  and  _25
REMARK   13  A    between atoms: _25  and  _26
REMARK   14  A    between atoms: _32  and  _34
REMARK   15  A    between atoms: _34  and  _35
REMARK   16  A    between atoms: _34  and  _37
REMARK   17  A    between atoms: _37  and  _38
REMARK   18  A    between atoms: _38  and  _39
REMARK   19  A    between atoms: _39  and  _40
REMARK   20  A    between atoms: _49  and  _51
REMARK   21  A    between atoms: _51  and  _52
REMARK   22  A    between atoms: _51  and  _54
REMARK   23  A    between atoms: _54  and  _55
REMARK   24  A    between atoms: _55  and  _56
REMARK   25  A    between atoms: _61  and  _63
REMARK   26  A    between atoms: _63  and  _64
REMARK   27  A    between atoms: _63  and  _66
REMARK   28  A    between atoms: _66  and  _67
REMARK   29  A    between atoms: _72  and  _74
REMARK   30  A    between atoms: _74  and  _75
REMARK   31  A    between atoms: _74  and  _77
REMARK   32  A    between atoms: _77  and  _78
REMARK   33  A    between atoms: _81  and  _83
REMARK   34  A    between atoms: _83  and  _84
REMARK   35  A    between atoms: _83  and  _86
REMARK   36  A    between atoms: _86  and  _87
REMARK   37  A    between atoms: _87  and  _88
REMARK   38  A    between atoms: _88  and  _89
REMARK   39  A    between atoms: _98  and  _100
REMARK   40  A    between atoms: _100  and  _101
REMARK   41  A    between atoms: _100  and  _103
REMARK   42  A    between atoms: _103  and  _104
REMARK   43  A    between atoms: _104  and  _105
REMARK   44  A    between atoms: _105  and  _106
REMARK   45  A    between atoms: _106  and  _107
REMARK   46  A    between atoms: _111  and  _113
REMARK   47  A    between atoms: _113  and  _114
REMARK   48  A    between atoms: _113  and  _116
REMARK   49  A    between atoms: _119  and  _121
REMARK   50  A    between atoms: _121  and  _122
REMARK   51  A    between atoms: _121  and  _124
REMARK   52  A    between atoms: _124  and  _125
REMARK   53  A    between atoms: _130  and  _132
REMARK   54  A    between atoms: _132  and  _133
REMARK   55  A    between atoms: _132  and  _135
REMARK   56  A    between atoms: _135  and  _136
REMARK   57  A    between atoms: _139  and  _141
REMARK   58  A    between atoms: _141  and  _142
REMARK   59  A    between atoms: _145  and  _147
REMARK   60  A    between atoms: _154  and  _157
REMARK   61  A    between atoms: _157  and  _158
REMARK   62  A    between atoms: _158  and  _159
REMARK   63  A    between atoms: _159  and  _160
REMARK   64  A    between atoms: _160  and  _161
REMARK   65  A    between atoms: _167  and  _170
REMARK   66  A    between atoms: _170  and  _171
REMARK   67  A    between atoms: _183  and  _186
REMARK   68  A    between atoms: _186  and  _187
REMARK   69  A    between atoms: _187  and  _188
REMARK   70  A    between atoms: _195  and  _198
REMARK   71  A    between atoms: _198  and  _199
REMARK   72  A    between atoms: _204  and  _207
REMARK   73  A    between atoms: _207  and  _208
REMARK   74  A    between atoms: _215  and  _216
REMARK   75  A    between atoms: _220  and  _222
REMARK   76  A    between atoms: _222  and  _223
REMARK   77  A    between atoms: _222  and  _225
REMARK   78  A    between atoms: _225  and  _226
REMARK   79  A    between atoms: _231  and  _232
REMARK   80  A    between atoms: _234  and  _236
REMARK   81  A    between atoms: _236  and  _237
REMARK   82  A    between atoms: _236  and  _239
REMARK   83  A    between atoms: _242  and  _244
REMARK   84  A    between atoms: _244  and  _245
REMARK   85  A    between atoms: _248  and  _250
REMARK   86  A    between atoms: _250  and  _251
REMARK   87  A    between atoms: _250  and  _253
REMARK   88  A    between atoms: _255  and  _257
REMARK   89  A    between atoms: _257  and  _258
REMARK   90  A    between atoms: _257  and  _260
REMARK   91  A    between atoms: _260  and  _261
REMARK   92  A    between atoms: _261  and  _262
REMARK   93  A    between atoms: _266  and  _267
REMARK   94  A    between atoms: _272  and  _274
REMARK   95  A    between atoms: _274  and  _275
REMARK   96  A    between atoms: _274  and  _277
REMARK   97  A    between atoms: _280  and  _282
REMARK   98  A    between atoms: _282  and  _283
REMARK   99  A    between atoms: _282  and  _285
REMARK  100  A    between atoms: _285  and  _286
REMARK  101  A    between atoms: _291  and  _293
REMARK  102  A    between atoms: _293  and  _294
REMARK  103  A    between atoms: _293  and  _296
REMARK  104  A    between atoms: _296  and  _297
REMARK  105  A    between atoms: _303  and  _305
REMARK  106  A    between atoms: _305  and  _306
REMARK  107  A    between atoms: _305  and  _308
REMARK  108  A    between atoms: _308  and  _309
REMARK  109  A    between atoms: _312  and  _314
REMARK  110  A    between atoms: _314  and  _315
REMARK                            x       y       z     vdW  Elec       q    Type
REMARK                         _______ _______ _______ _____ _____    ______ ____
ROOT
ATOM      1  O   HOH     1      37.317  -0.356  21.270  0.00  0.00    +0.000 OA
ENDROOT
TORSDOF 0
REMARK  Name = ../refined-set-2016/1o0f/1o0f_pocket.pdb
REMARK  110 active torsions:
REMARK  status: ('A' for Active; 'I' for Inactive)
REMARK    1  A    between atoms: _1  and  _3
REMARK    2  A    between atoms: _3  and  _4
REMARK    3  A    between atoms: _7  and  _9
REMARK    4  A    between atoms: _9  and  _10
REMARK    5  A    between atoms: _9  and  _12
REMARK    6  A    between atoms: _12  and  _13
REMARK    7  A    between atoms: _13  and  _14
REMARK    8  A    between atoms: _14  and  _15
REMARK    9  A    between atoms: _15  and  _16
REMARK   10  A    between atoms: _20  and  _22
REMARK   11  A    between atoms: _22  and  _23
REMARK   12  A    between atoms: _22  and  _25
REMARK   13  A    between atoms: _25  and  _26
REMARK   14  A    between atoms: _32  and  _34
REMARK   15  A    between atoms: _34  and  _35
REMARK   16  A    between atoms: _34  and  _37
REMARK   17  A    between atoms: _37  and  _38
REMARK   18  A    between atoms: _38  and  _39
REMARK   19  A    between atoms: _39  and  _40
REMARK   20  A    between atoms: _49  and  _51
REMARK   21  A    between atoms: _51  and  _52
REMARK   22  A    between atoms: _51  and  _54
REMARK   23  A    between atoms: _54  and  _55
REMARK   24  A    between atoms: _55  and  _56
REMARK   25  A    between atoms: _61  and  _63
REMARK   26  A    between atoms: _63  and  _64
REMARK   27  A    between atoms: _63  and  _66
REMARK   28  A    between atoms: _66  and  _67
REMARK   29  A    between atoms: _72  and  _74
REMARK   30  A    between atoms: _74  and  _75
REMARK   31  A    between atoms: _74  and  _77
REMARK   32  A    between atoms: _77  and  _78
REMARK   33  A    between atoms: _81  and  _83
REMARK   34  A    between atoms: _83  and  _84
REMARK   35  A    between atoms: _83  and  _86
REMARK   36  A    between atoms: _86  and  _87
REMARK   37  A    between atoms: _87  and  _88
REMARK   38  A    between atoms: _88  and  _89
REMARK   39  A    between atoms: _98  and  _100
REMARK   40  A    between atoms: _100  and  _101
REMARK   41  A    between atoms: _100  and  _103
REMARK   42  A    between atoms: _103  and  _104
REMARK   43  A    between atoms: _104  and  _105
REMARK   44  A    between atoms: _105  and  _106
REMARK   45  A    between atoms: _106  and  _107
REMARK   46  A    between atoms: _111  and  _113
REMARK   47  A    between atoms: _113  and  _114
REMARK   48  A    between atoms: _113  and  _116
REMARK   49  A    between atoms: _119  and  _121
REMARK   50  A    between atoms: _121  and  _122
REMARK   51  A    between atoms: _121  and  _124
REMARK   52  A    between atoms: _124  and  _125
REMARK   53  A    between atoms: _130  and  _132
REMARK   54  A    between atoms: _132  and  _133
REMARK   55  A    between atoms: _132  and  _135
REMARK   56  A    between atoms: _135  and  _136
REMARK   57  A    between atoms: _139  and  _141
REMARK   58  A    between atoms: _141  and  _142
REMARK   59  A    between atoms: _145  and  _147
REMARK   60  A    between atoms: _154  and  _157
REMARK   61  A    between atoms: _157  and  _158
REMARK   62  A    between atoms: _158  and  _159
REMARK   63  A    between atoms: _159  and  _160
REMARK   64  A    between atoms: _160  and  _161
REMARK   65  A    between atoms: _167  and  _170
REMARK   66  A    between atoms: _170  and  _171
REMARK   67  A    between atoms: _183  and  _186
REMARK   68  A    between atoms: _186  and  _187
REMARK   69  A    between atoms: _187  and  _188
REMARK   70  A    between atoms: _195  and  _198
REMARK   71  A    between atoms: _198  and  _199
REMARK   72  A    between atoms: _204  and  _207
REMARK   73  A    between atoms: _207  and  _208
REMARK   74  A    between atoms: _215  and  _216
REMARK   75  A    between atoms: _220  and  _222
REMARK   76  A    between atoms: _222  and  _223
REMARK   77  A    between atoms: _222  and  _225
REMARK   78  A    between atoms: _225  and  _226
REMARK   79  A    between atoms: _231  and  _232
REMARK   80  A    between atoms: _234  and  _236
REMARK   81  A    between atoms: _236  and  _237
REMARK   82  A    between atoms: _236  and  _239
REMARK   83  A    between atoms: _242  and  _244
REMARK   84  A    between atoms: _244  and  _245
REMARK   85  A    between atoms: _248  and  _250
REMARK   86  A    between atoms: _250  and  _251
REMARK   87  A    between atoms: _250  and  _253
REMARK   88  A    between atoms: _255  and  _257
REMARK   89  A    between atoms: _257  and  _258
REMARK   90  A    between atoms: _257  and  _260
REMARK   91  A    between atoms: _260  and  _261
REMARK   92  A    between atoms: _261  and  _262
REMARK   93  A    between atoms: _266  and  _267
REMARK   94  A    between atoms: _272  and  _274
REMARK   95  A    between atoms: _274  and  _275
REMARK   96  A    between atoms: _274  and  _277
REMARK   97  A    between atoms: _280  and  _282
REMARK   98  A    between atoms: _282  and  _283
REMARK   99  A    between atoms: _282  and  _285
REMARK  100  A    between atoms: _285  and  _286
REMARK  101  A    between atoms: _291  and  _293
REMARK  102  A    between atoms: _293  and  _294
REMARK  103  A    between atoms: _293  and  _296
REMARK  104  A    between atoms: _296  and  _297
REMARK  105  A    between atoms: _303  and  _305
REMARK  106  A    between atoms: _305  and  _306
REMARK  107  A    between atoms: _305  and  _308
REMARK  108  A    between atoms: _308  and  _309
REMARK  109  A    between atoms: _312  and  _314
REMARK  110  A    between atoms: _314  and  _315
REMARK                            x       y       z     vdW  Elec       q    Type
REMARK                         _______ _______ _______ _____ _____    ______ ____
ROOT
ATOM      1  O   HOH     1      41.708   3.064  21.919  0.00  0.00    +0.000 OA
ENDROOT
TORSDOF 0
REMARK  Name = ../refined-set-2016/1o0f/1o0f_pocket.pdb
REMARK  110 active torsions:
REMARK  status: ('A' for Active; 'I' for Inactive)
REMARK    1  A    between atoms: _1  and  _3
REMARK    2  A    between atoms: _3  and  _4
REMARK    3  A    between atoms: _7  and  _9
REMARK    4  A    between atoms: _9  and  _10
REMARK    5  A    between atoms: _9  and  _12
REMARK    6  A    between atoms: _12  and  _13
REMARK    7  A    between atoms: _13  and  _14
REMARK    8  A    between atoms: _14  and  _15
REMARK    9  A    between atoms: _15  and  _16
REMARK   10  A    between atoms: _20  and  _22
REMARK   11  A    between atoms: _22  and  _23
REMARK   12  A    between atoms: _22  and  _25
REMARK   13  A    between atoms: _25  and  _26
REMARK   14  A    between atoms: _32  and  _34
REMARK   15  A    between atoms: _34  and  _35
REMARK   16  A    between atoms: _34  and  _37
REMARK   17  A    between atoms: _37  and  _38
REMARK   18  A    between atoms: _38  and  _39
REMARK   19  A    between atoms: _39  and  _40
REMARK   20  A    between atoms: _49  and  _51
REMARK   21  A    between atoms: _51  and  _52
REMARK   22  A    between atoms: _51  and  _54
REMARK   23  A    between atoms: _54  and  _55
REMARK   24  A    between atoms: _55  and  _56
REMARK   25  A    between atoms: _61  and  _63
REMARK   26  A    between atoms: _63  and  _64
REMARK   27  A    between atoms: _63  and  _66
REMARK   28  A    between atoms: _66  and  _67
REMARK   29  A    between atoms: _72  and  _74
REMARK   30  A    between atoms: _74  and  _75
REMARK   31  A    between atoms: _74  and  _77
REMARK   32  A    between atoms: _77  and  _78
REMARK   33  A    between atoms: _81  and  _83
REMARK   34  A    between atoms: _83  and  _84
REMARK   35  A    between atoms: _83  and  _86
REMARK   36  A    between atoms: _86  and  _87
REMARK   37  A    between atoms: _87  and  _88
REMARK   38  A    between atoms: _88  and  _89
REMARK   39  A    between atoms: _98  and  _100
REMARK   40  A    between atoms: _100  and  _101
REMARK   41  A    between atoms: _100  and  _103
REMARK   42  A    between atoms: _103  and  _104
REMARK   43  A    between atoms: _104  and  _105
REMARK   44  A    between atoms: _105  and  _106
REMARK   45  A    between atoms: _106  and  _107
REMARK   46  A    between atoms: _111  and  _113
REMARK   47  A    between atoms: _113  and  _114
REMARK   48  A    between atoms: _113  and  _116
REMARK   49  A    between atoms: _119  and  _121
REMARK   50  A    between atoms: _121  and  _122
REMARK   51  A    between atoms: _121  and  _124
REMARK   52  A    between atoms: _124  and  _125
REMARK   53  A    between atoms: _130  and  _132
REMARK   54  A    between atoms: _132  and  _133
REMARK   55  A    between atoms: _132  and  _135
REMARK   56  A    between atoms: _135  and  _136
REMARK   57  A    between atoms: _139  and  _141
REMARK   58  A    between atoms: _141  and  _142
REMARK   59  A    between atoms: _145  and  _147
REMARK   60  A    between atoms: _154  and  _157
REMARK   61  A    between atoms: _157  and  _158
REMARK   62  A    between atoms: _158  and  _159
REMARK   63  A    between atoms: _159  and  _160
REMARK   64  A    between atoms: _160  and  _161
REMARK   65  A    between atoms: _167  and  _170
REMARK   66  A    between atoms: _170  and  _171
REMARK   67  A    between atoms: _183  and  _186
REMARK   68  A    between atoms: _186  and  _187
REMARK   69  A    between atoms: _187  and  _188
REMARK   70  A    between atoms: _195  and  _198
REMARK   71  A    between atoms: _198  and  _199
REMARK   72  A    between atoms: _204  and  _207
REMARK   73  A    between atoms: _207  and  _208
REMARK   74  A    between atoms: _215  and  _216
REMARK   75  A    between atoms: _220  and  _222
REMARK   76  A    between atoms: _222  and  _223
REMARK   77  A    between atoms: _222  and  _225
REMARK   78  A    between atoms: _225  and  _226
REMARK   79  A    between atoms: _231  and  _232
REMARK   80  A    between atoms: _234  and  _236
REMARK   81  A    between atoms: _236  and  _237
REMARK   82  A    between atoms: _236  and  _239
REMARK   83  A    between atoms: _242  and  _244
REMARK   84  A    between atoms: _244  and  _245
REMARK   85  A    between atoms: _248  and  _250
REMARK   86  A    between atoms: _250  and  _251
REMARK   87  A    between atoms: _250  and  _253
REMARK   88  A    between atoms: _255  and  _257
REMARK   89  A    between atoms: _257  and  _258
REMARK   90  A    between atoms: _257  and  _260
REMARK   91  A    between atoms: _260  and  _261
REMARK   92  A    between atoms: _261  and  _262
REMARK   93  A    between atoms: _266  and  _267
REMARK   94  A    between atoms: _272  and  _274
REMARK   95  A    between atoms: _274  and  _275
REMARK   96  A    between atoms: _274  and  _277
REMARK   97  A    between atoms: _280  and  _282
REMARK   98  A    between atoms: _282  and  _283
REMARK   99  A    between atoms: _282  and  _285
REMARK  100  A    between atoms: _285  and  _286
REMARK  101  A    between atoms: _291  and  _293
REMARK  102  A    between atoms: _293  and  _294
REMARK  103  A    between atoms: _293  and  _296
REMARK  104  A    between atoms: _296  and  _297
REMARK  105  A    between atoms: _303  and  _305
REMARK  106  A    between atoms: _305  and  _306
REMARK  107  A    between atoms: _305  and  _308
REMARK  108  A    between atoms: _308  and  _309
REMARK  109  A    between atoms: _312  and  _314
REMARK  110  A    between atoms: _314  and  _315
REMARK                            x       y       z     vdW  Elec       q    Type
REMARK                         _______ _______ _______ _____ _____    ______ ____
ROOT
ATOM      1  O   HOH     1      43.731  -0.202  23.622  0.00  0.00    +0.000 OA
ENDROOT
TORSDOF 0
REMARK  Name = ../refined-set-2016/1o0f/1o0f_pocket.pdb
REMARK  110 active torsions:
REMARK  status: ('A' for Active; 'I' for Inactive)
REMARK    1  A    between atoms: _1  and  _3
REMARK    2  A    between atoms: _3  and  _4
REMARK    3  A    between atoms: _7  and  _9
REMARK    4  A    between atoms: _9  and  _10
REMARK    5  A    between atoms: _9  and  _12
REMARK    6  A    between atoms: _12  and  _13
REMARK    7  A    between atoms: _13  and  _14
REMARK    8  A    between atoms: _14  and  _15
REMARK    9  A    between atoms: _15  and  _16
REMARK   10  A    between atoms: _20  and  _22
REMARK   11  A    between atoms: _22  and  _23
REMARK   12  A    between atoms: _22  and  _25
REMARK   13  A    between atoms: _25  and  _26
REMARK   14  A    between atoms: _32  and  _34
REMARK   15  A    between atoms: _34  and  _35
REMARK   16  A    between atoms: _34  and  _37
REMARK   17  A    between atoms: _37  and  _38
REMARK   18  A    between atoms: _38  and  _39
REMARK   19  A    between atoms: _39  and  _40
REMARK   20  A    between atoms: _49  and  _51
REMARK   21  A    between atoms: _51  and  _52
REMARK   22  A    between atoms: _51  and  _54
REMARK   23  A    between atoms: _54  and  _55
REMARK   24  A    between atoms: _55  and  _56
REMARK   25  A    between atoms: _61  and  _63
REMARK   26  A    between atoms: _63  and  _64
REMARK   27  A    between atoms: _63  and  _66
REMARK   28  A    between atoms: _66  and  _67
REMARK   29  A    between atoms: _72  and  _74
REMARK   30  A    between atoms: _74  and  _75
REMARK   31  A    between atoms: _74  and  _77
REMARK   32  A    between atoms: _77  and  _78
REMARK   33  A    between atoms: _81  and  _83
REMARK   34  A    between atoms: _83  and  _84
REMARK   35  A    between atoms: _83  and  _86
REMARK   36  A    between atoms: _86  and  _87
REMARK   37  A    between atoms: _87  and  _88
REMARK   38  A    between atoms: _88  and  _89
REMARK   39  A    between atoms: _98  and  _100
REMARK   40  A    between atoms: _100  and  _101
REMARK   41  A    between atoms: _100  and  _103
REMARK   42  A    between atoms: _103  and  _104
REMARK   43  A    between atoms: _104  and  _105
REMARK   44  A    between atoms: _105  and  _106
REMARK   45  A    between atoms: _106  and  _107
REMARK   46  A    between atoms: _111  and  _113
REMARK   47  A    between atoms: _113  and  _114
REMARK   48  A    between atoms: _113  and  _116
REMARK   49  A    between atoms: _119  and  _121
REMARK   50  A    between atoms: _121  and  _122
REMARK   51  A    between atoms: _121  and  _124
REMARK   52  A    between atoms: _124  and  _125
REMARK   53  A    between atoms: _130  and  _132
REMARK   54  A    between atoms: _132  and  _133
REMARK   55  A    between atoms: _132  and  _135
REMARK   56  A    between atoms: _135  and  _136
REMARK   57  A    between atoms: _139  and  _141
REMARK   58  A    between atoms: _141  and  _142
REMARK   59  A    between atoms: _145  and  _147
REMARK   60  A    between atoms: _154  and  _157
REMARK   61  A    between atoms: _157  and  _158
REMARK   62  A    between atoms: _158  and  _159
REMARK   63  A    between atoms: _159  and  _160
REMARK   64  A    between atoms: _160  and  _161
REMARK   65  A    between atoms: _167  and  _170
REMARK   66  A    between atoms: _170  and  _171
REMARK   67  A    between atoms: _183  and  _186
REMARK   68  A    between atoms: _186  and  _187
REMARK   69  A    between atoms: _187  and  _188
REMARK   70  A    between atoms: _195  and  _198
REMARK   71  A    between atoms: _198  and  _199
REMARK   72  A    between atoms: _204  and  _207
REMARK   73  A    between atoms: _207  and  _208
REMARK   74  A    between atoms: _215  and  _216
REMARK   75  A    between atoms: _220  and  _222
REMARK   76  A    between atoms: _222  and  _223
REMARK   77  A    between atoms: _222  and  _225
REMARK   78  A    between atoms: _225  and  _226
REMARK   79  A    between atoms: _231  and  _232
REMARK   80  A    between atoms: _234  and  _236
REMARK   81  A    between atoms: _236  and  _237
REMARK   82  A    between atoms: _236  and  _239
REMARK   83  A    between atoms: _242  and  _244
REMARK   84  A    between atoms: _244  and  _245
REMARK   85  A    between atoms: _248  and  _250
REMARK   86  A    between atoms: _250  and  _251
REMARK   87  A    between atoms: _250  and  _253
REMARK   88  A    between atoms: _255  and  _257
REMARK   89  A    between atoms: _257  and  _258
REMARK   90  A    between atoms: _257  and  _260
REMARK   91  A    between atoms: _260  and  _261
REMARK   92  A    between atoms: _261  and  _262
REMARK   93  A    between atoms: _266  and  _267
REMARK   94  A    between atoms: _272  and  _274
REMARK   95  A    between atoms: _274  and  _275
REMARK   96  A    between atoms: _274  and  _277
REMARK   97  A    between atoms: _280  and  _282
REMARK   98  A    between atoms: _282  and  _283
REMARK   99  A    between atoms: _282  and  _285
REMARK  100  A    between atoms: _285  and  _286
REMARK  101  A    between atoms: _291  and  _293
REMARK  102  A    between atoms: _293  and  _294
REMARK  103  A    between atoms: _293  and  _296
REMARK  104  A    between atoms: _296  and  _297
REMARK  105  A    between atoms: _303  and  _305
REMARK  106  A    between atoms: _305  and  _306
REMARK  107  A    between atoms: _305  and  _308
REMARK  108  A    between atoms: _308  and  _309
REMARK  109  A    between atoms: _312  and  _314
REMARK  110  A    between atoms: _314  and  _315
REMARK                            x       y       z     vdW  Elec       q    Type
REMARK                         _______ _______ _______ _____ _____    ______ ____
ROOT
ATOM      1  O   HOH     1      34.454  -4.233  11.269  0.00  0.00    +0.000 OA
ENDROOT
TORSDOF 0
REMARK  Name = ../refined-set-2016/1o0f/1o0f_pocket.pdb
REMARK  110 active torsions:
REMARK  status: ('A' for Active; 'I' for Inactive)
REMARK    1  A    between atoms: _1  and  _3
REMARK    2  A    between atoms: _3  and  _4
REMARK    3  A    between atoms: _7  and  _9
REMARK    4  A    between atoms: _9  and  _10
REMARK    5  A    between atoms: _9  and  _12
REMARK    6  A    between atoms: _12  and  _13
REMARK    7  A    between atoms: _13  and  _14
REMARK    8  A    between atoms: _14  and  _15
REMARK    9  A    between atoms: _15  and  _16
REMARK   10  A    between atoms: _20  and  _22
REMARK   11  A    between atoms: _22  and  _23
REMARK   12  A    between atoms: _22  and  _25
REMARK   13  A    between atoms: _25  and  _26
REMARK   14  A    between atoms: _32  and  _34
REMARK   15  A    between atoms: _34  and  _35
REMARK   16  A    between atoms: _34  and  _37
REMARK   17  A    between atoms: _37  and  _38
REMARK   18  A    between atoms: _38  and  _39
REMARK   19  A    between atoms: _39  and  _40
REMARK   20  A    between atoms: _49  and  _51
REMARK   21  A    between atoms: _51  and  _52
REMARK   22  A    between atoms: _51  and  _54
REMARK   23  A    between atoms: _54  and  _55
REMARK   24  A    between atoms: _55  and  _56
REMARK   25  A    between atoms: _61  and  _63
REMARK   26  A    between atoms: _63  and  _64
REMARK   27  A    between atoms: _63  and  _66
REMARK   28  A    between atoms: _66  and  _67
REMARK   29  A    between atoms: _72  and  _74
REMARK   30  A    between atoms: _74  and  _75
REMARK   31  A    between atoms: _74  and  _77
REMARK   32  A    between atoms: _77  and  _78
REMARK   33  A    between atoms: _81  and  _83
REMARK   34  A    between atoms: _83  and  _84
REMARK   35  A    between atoms: _83  and  _86
REMARK   36  A    between atoms: _86  and  _87
REMARK   37  A    between atoms: _87  and  _88
REMARK   38  A    between atoms: _88  and  _89
REMARK   39  A    between atoms: _98  and  _100
REMARK   40  A    between atoms: _100  and  _101
REMARK   41  A    between atoms: _100  and  _103
REMARK   42  A    between atoms: _103  and  _104
REMARK   43  A    between atoms: _104  and  _105
REMARK   44  A    between atoms: _105  and  _106
REMARK   45  A    between atoms: _106  and  _107
REMARK   46  A    between atoms: _111  and  _113
REMARK   47  A    between atoms: _113  and  _114
REMARK   48  A    between atoms: _113  and  _116
REMARK   49  A    between atoms: _119  and  _121
REMARK   50  A    between atoms: _121  and  _122
REMARK   51  A    between atoms: _121  and  _124
REMARK   52  A    between atoms: _124  and  _125
REMARK   53  A    between atoms: _130  and  _132
REMARK   54  A    between atoms: _132  and  _133
REMARK   55  A    between atoms: _132  and  _135
REMARK   56  A    between atoms: _135  and  _136
REMARK   57  A    between atoms: _139  and  _141
REMARK   58  A    between atoms: _141  and  _142
REMARK   59  A    between atoms: _145  and  _147
REMARK   60  A    between atoms: _154  and  _157
REMARK   61  A    between atoms: _157  and  _158
REMARK   62  A    between atoms: _158  and  _159
REMARK   63  A    between atoms: _159  and  _160
REMARK   64  A    between atoms: _160  and  _161
REMARK   65  A    between atoms: _167  and  _170
REMARK   66  A    between atoms: _170  and  _171
REMARK   67  A    between atoms: _183  and  _186
REMARK   68  A    between atoms: _186  and  _187
REMARK   69  A    between atoms: _187  and  _188
REMARK   70  A    between atoms: _195  and  _198
REMARK   71  A    between atoms: _198  and  _199
REMARK   72  A    between atoms: _204  and  _207
REMARK   73  A    between atoms: _207  and  _208
REMARK   74  A    between atoms: _215  and  _216
REMARK   75  A    between atoms: _220  and  _222
REMARK   76  A    between atoms: _222  and  _223
REMARK   77  A    between atoms: _222  and  _225
REMARK   78  A    between atoms: _225  and  _226
REMARK   79  A    between atoms: _231  and  _232
REMARK   80  A    between atoms: _234  and  _236
REMARK   81  A    between atoms: _236  and  _237
REMARK   82  A    between atoms: _236  and  _239
REMARK   83  A    between atoms: _242  and  _244
REMARK   84  A    between atoms: _244  and  _245
REMARK   85  A    between atoms: _248  and  _250
REMARK   86  A    between atoms: _250  and  _251
REMARK   87  A    between atoms: _250  and  _253
REMARK   88  A    between atoms: _255  and  _257
REMARK   89  A    between atoms: _257  and  _258
REMARK   90  A    between atoms: _257  and  _260
REMARK   91  A    between atoms: _260  and  _261
REMARK   92  A    between atoms: _261  and  _262
REMARK   93  A    between atoms: _266  and  _267
REMARK   94  A    between atoms: _272  and  _274
REMARK   95  A    between atoms: _274  and  _275
REMARK   96  A    between atoms: _274  and  _277
REMARK   97  A    between atoms: _280  and  _282
REMARK   98  A    between atoms: _282  and  _283
REMARK   99  A    between atoms: _282  and  _285
REMARK  100  A    between atoms: _285  and  _286
REMARK  101  A    between atoms: _291  and  _293
REMARK  102  A    between atoms: _293  and  _294
REMARK  103  A    between atoms: _293  and  _296
REMARK  104  A    between atoms: _296  and  _297
REMARK  105  A    between atoms: _303  and  _305
REMARK  106  A    between atoms: _305  and  _306
REMARK  107  A    between atoms: _305  and  _308
REMARK  108  A    between atoms: _308  and  _309
REMARK  109  A    between atoms: _312  and  _314
REMARK  110  A    between atoms: _314  and  _315
REMARK                            x       y       z     vdW  Elec       q    Type
REMARK                         _______ _______ _______ _____ _____    ______ ____
ROOT
ATOM      1  O   HOH     1      34.469  -1.278  10.694  0.00  0.00    +0.000 OA
ENDROOT
TORSDOF 0
REMARK  Name = ../refined-set-2016/1o0f/1o0f_pocket.pdb
REMARK  110 active torsions:
REMARK  status: ('A' for Active; 'I' for Inactive)
REMARK    1  A    between atoms: _1  and  _3
REMARK    2  A    between atoms: _3  and  _4
REMARK    3  A    between atoms: _7  and  _9
REMARK    4  A    between atoms: _9  and  _10
REMARK    5  A    between atoms: _9  and  _12
REMARK    6  A    between atoms: _12  and  _13
REMARK    7  A    between atoms: _13  and  _14
REMARK    8  A    between atoms: _14  and  _15
REMARK    9  A    between atoms: _15  and  _16
REMARK   10  A    between atoms: _20  and  _22
REMARK   11  A    between atoms: _22  and  _23
REMARK   12  A    between atoms: _22  and  _25
REMARK   13  A    between atoms: _25  and  _26
REMARK   14  A    between atoms: _32  and  _34
REMARK   15  A    between atoms: _34  and  _35
REMARK   16  A    between atoms: _34  and  _37
REMARK   17  A    between atoms: _37  and  _38
REMARK   18  A    between atoms: _38  and  _39
REMARK   19  A    between atoms: _39  and  _40
REMARK   20  A    between atoms: _49  and  _51
REMARK   21  A    between atoms: _51  and  _52
REMARK   22  A    between atoms: _51  and  _54
REMARK   23  A    between atoms: _54  and  _55
REMARK   24  A    between atoms: _55  and  _56
REMARK   25  A    between atoms: _61  and  _63
REMARK   26  A    between atoms: _63  and  _64
REMARK   27  A    between atoms: _63  and  _66
REMARK   28  A    between atoms: _66  and  _67
REMARK   29  A    between atoms: _72  and  _74
REMARK   30  A    between atoms: _74  and  _75
REMARK   31  A    between atoms: _74  and  _77
REMARK   32  A    between atoms: _77  and  _78
REMARK   33  A    between atoms: _81  and  _83
REMARK   34  A    between atoms: _83  and  _84
REMARK   35  A    between atoms: _83  and  _86
REMARK   36  A    between atoms: _86  and  _87
REMARK   37  A    between atoms: _87  and  _88
REMARK   38  A    between atoms: _88  and  _89
REMARK   39  A    between atoms: _98  and  _100
REMARK   40  A    between atoms: _100  and  _101
REMARK   41  A    between atoms: _100  and  _103
REMARK   42  A    between atoms: _103  and  _104
REMARK   43  A    between atoms: _104  and  _105
REMARK   44  A    between atoms: _105  and  _106
REMARK   45  A    between atoms: _106  and  _107
REMARK   46  A    between atoms: _111  and  _113
REMARK   47  A    between atoms: _113  and  _114
REMARK   48  A    between atoms: _113  and  _116
REMARK   49  A    between atoms: _119  and  _121
REMARK   50  A    between atoms: _121  and  _122
REMARK   51  A    between atoms: _121  and  _124
REMARK   52  A    between atoms: _124  and  _125
REMARK   53  A    between atoms: _130  and  _132
REMARK   54  A    between atoms: _132  and  _133
REMARK   55  A    between atoms: _132  and  _135
REMARK   56  A    between atoms: _135  and  _136
REMARK   57  A    between atoms: _139  and  _141
REMARK   58  A    between atoms: _141  and  _142
REMARK   59  A    between atoms: _145  and  _147
REMARK   60  A    between atoms: _154  and  _157
REMARK   61  A    between atoms: _157  and  _158
REMARK   62  A    between atoms: _158  and  _159
REMARK   63  A    between atoms: _159  and  _160
REMARK   64  A    between atoms: _160  and  _161
REMARK   65  A    between atoms: _167  and  _170
REMARK   66  A    between atoms: _170  and  _171
REMARK   67  A    between atoms: _183  and  _186
REMARK   68  A    between atoms: _186  and  _187
REMARK   69  A    between atoms: _187  and  _188
REMARK   70  A    between atoms: _195  and  _198
REMARK   71  A    between atoms: _198  and  _199
REMARK   72  A    between atoms: _204  and  _207
REMARK   73  A    between atoms: _207  and  _208
REMARK   74  A    between atoms: _215  and  _216
REMARK   75  A    between atoms: _220  and  _222
REMARK   76  A    between atoms: _222  and  _223
REMARK   77  A    between atoms: _222  and  _225
REMARK   78  A    between atoms: _225  and  _226
REMARK   79  A    between atoms: _231  and  _232
REMARK   80  A    between atoms: _234  and  _236
REMARK   81  A    between atoms: _236  and  _237
REMARK   82  A    between atoms: _236  and  _239
REMARK   83  A    between atoms: _242  and  _244
REMARK   84  A    between atoms: _244  and  _245
REMARK   85  A    between atoms: _248  and  _250
REMARK   86  A    between atoms: _250  and  _251
REMARK   87  A    between atoms: _250  and  _253
REMARK   88  A    between atoms: _255  and  _257
REMARK   89  A    between atoms: _257  and  _258
REMARK   90  A    between atoms: _257  and  _260
REMARK   91  A    between atoms: _260  and  _261
REMARK   92  A    between atoms: _261  and  _262
REMARK   93  A    between atoms: _266  and  _267
REMARK   94  A    between atoms: _272  and  _274
REMARK   95  A    between atoms: _274  and  _275
REMARK   96  A    between atoms: _274  and  _277
REMARK   97  A    between atoms: _280  and  _282
REMARK   98  A    between atoms: _282  and  _283
REMARK   99  A    between atoms: _282  and  _285
REMARK  100  A    between atoms: _285  and  _286
REMARK  101  A    between atoms: _291  and  _293
REMARK  102  A    between atoms: _293  and  _294
REMARK  103  A    between atoms: _293  and  _296
REMARK  104  A    between atoms: _296  and  _297
REMARK  105  A    between atoms: _303  and  _305
REMARK  106  A    between atoms: _305  and  _306
REMARK  107  A    between atoms: _305  and  _308
REMARK  108  A    between atoms: _308  and  _309
REMARK  109  A    between atoms: _312  and  _314
REMARK  110  A    between atoms: _314  and  _315
REMARK                            x       y       z     vdW  Elec       q    Type
REMARK                         _______ _______ _______ _____ _____    ______ ____
ROOT
ATOM      1  O   HOH     1      42.477  -3.045  11.285  0.00  0.00    +0.000 OA
ENDROOT
TORSDOF 0
REMARK  Name = ../refined-set-2016/1o0f/1o0f_pocket.pdb
REMARK  110 active torsions:
REMARK  status: ('A' for Active; 'I' for Inactive)
REMARK    1  A    between atoms: _1  and  _3
REMARK    2  A    between atoms: _3  and  _4
REMARK    3  A    between atoms: _7  and  _9
REMARK    4  A    between atoms: _9  and  _10
REMARK    5  A    between atoms: _9  and  _12
REMARK    6  A    between atoms: _12  and  _13
REMARK    7  A    between atoms: _13  and  _14
REMARK    8  A    between atoms: _14  and  _15
REMARK    9  A    between atoms: _15  and  _16
REMARK   10  A    between atoms: _20  and  _22
REMARK   11  A    between atoms: _22  and  _23
REMARK   12  A    between atoms: _22  and  _25
REMARK   13  A    between atoms: _25  and  _26
REMARK   14  A    between atoms: _32  and  _34
REMARK   15  A    between atoms: _34  and  _35
REMARK   16  A    between atoms: _34  and  _37
REMARK   17  A    between atoms: _37  and  _38
REMARK   18  A    between atoms: _38  and  _39
REMARK   19  A    between atoms: _39  and  _40
REMARK   20  A    between atoms: _49  and  _51
REMARK   21  A    between atoms: _51  and  _52
REMARK   22  A    between atoms: _51  and  _54
REMARK   23  A    between atoms: _54  and  _55
REMARK   24  A    between atoms: _55  and  _56
REMARK   25  A    between atoms: _61  and  _63
REMARK   26  A    between atoms: _63  and  _64
REMARK   27  A    between atoms: _63  and  _66
REMARK   28  A    between atoms: _66  and  _67
REMARK   29  A    between atoms: _72  and  _74
REMARK   30  A    between atoms: _74  and  _75
REMARK   31  A    between atoms: _74  and  _77
REMARK   32  A    between atoms: _77  and  _78
REMARK   33  A    between atoms: _81  and  _83
REMARK   34  A    between atoms: _83  and  _84
REMARK   35  A    between atoms: _83  and  _86
REMARK   36  A    between atoms: _86  and  _87
REMARK   37  A    between atoms: _87  and  _88
REMARK   38  A    between atoms: _88  and  _89
REMARK   39  A    between atoms: _98  and  _100
REMARK   40  A    between atoms: _100  and  _101
REMARK   41  A    between atoms: _100  and  _103
REMARK   42  A    between atoms: _103  and  _104
REMARK   43  A    between atoms: _104  and  _105
REMARK   44  A    between atoms: _105  and  _106
REMARK   45  A    between atoms: _106  and  _107
REMARK   46  A    between atoms: _111  and  _113
REMARK   47  A    between atoms: _113  and  _114
REMARK   48  A    between atoms: _113  and  _116
REMARK   49  A    between atoms: _119  and  _121
REMARK   50  A    between atoms: _121  and  _122
REMARK   51  A    between atoms: _121  and  _124
REMARK   52  A    between atoms: _124  and  _125
REMARK   53  A    between atoms: _130  and  _132
REMARK   54  A    between atoms: _132  and  _133
REMARK   55  A    between atoms: _132  and  _135
REMARK   56  A    between atoms: _135  and  _136
REMARK   57  A    between atoms: _139  and  _141
REMARK   58  A    between atoms: _141  and  _142
REMARK   59  A    between atoms: _145  and  _147
REMARK   60  A    between atoms: _154  and  _157
REMARK   61  A    between atoms: _157  and  _158
REMARK   62  A    between atoms: _158  and  _159
REMARK   63  A    between atoms: _159  and  _160
REMARK   64  A    between atoms: _160  and  _161
REMARK   65  A    between atoms: _167  and  _170
REMARK   66  A    between atoms: _170  and  _171
REMARK   67  A    between atoms: _183  and  _186
REMARK   68  A    between atoms: _186  and  _187
REMARK   69  A    between atoms: _187  and  _188
REMARK   70  A    between atoms: _195  and  _198
REMARK   71  A    between atoms: _198  and  _199
REMARK   72  A    between atoms: _204  and  _207
REMARK   73  A    between atoms: _207  and  _208
REMARK   74  A    between atoms: _215  and  _216
REMARK   75  A    between atoms: _220  and  _222
REMARK   76  A    between atoms: _222  and  _223
REMARK   77  A    between atoms: _222  and  _225
REMARK   78  A    between atoms: _225  and  _226
REMARK   79  A    between atoms: _231  and  _232
REMARK   80  A    between atoms: _234  and  _236
REMARK   81  A    between atoms: _236  and  _237
REMARK   82  A    between atoms: _236  and  _239
REMARK   83  A    between atoms: _242  and  _244
REMARK   84  A    between atoms: _244  and  _245
REMARK   85  A    between atoms: _248  and  _250
REMARK   86  A    between atoms: _250  and  _251
REMARK   87  A    between atoms: _250  and  _253
REMARK   88  A    between atoms: _255  and  _257
REMARK   89  A    between atoms: _257  and  _258
REMARK   90  A    between atoms: _257  and  _260
REMARK   91  A    between atoms: _260  and  _261
REMARK   92  A    between atoms: _261  and  _262
REMARK   93  A    between atoms: _266  and  _267
REMARK   94  A    between atoms: _272  and  _274
REMARK   95  A    between atoms: _274  and  _275
REMARK   96  A    between atoms: _274  and  _277
REMARK   97  A    between atoms: _280  and  _282
REMARK   98  A    between atoms: _282  and  _283
REMARK   99  A    between atoms: _282  and  _285
REMARK  100  A    between atoms: _285  and  _286
REMARK  101  A    between atoms: _291  and  _293
REMARK  102  A    between atoms: _293  and  _294
REMARK  103  A    between atoms: _293  and  _296
REMARK  104  A    between atoms: _296  and  _297
REMARK  105  A    between atoms: _303  and  _305
REMARK  106  A    between atoms: _305  and  _306
REMARK  107  A    between atoms: _305  and  _308
REMARK  108  A    between atoms: _308  and  _309
REMARK  109  A    between atoms: _312  and  _314
REMARK  110  A    between atoms: _314  and  _315
REMARK                            x       y       z     vdW  Elec       q    Type
REMARK                         _______ _______ _______ _____ _____    ______ ____
ROOT
ATOM      1  O   HOH     1      41.949   2.431  14.906  0.00  0.00    +0.000 OA
ENDROOT
TORSDOF 0
REMARK  Name = ../refined-set-2016/1o0f/1o0f_pocket.pdb
REMARK  110 active torsions:
REMARK  status: ('A' for Active; 'I' for Inactive)
REMARK    1  A    between atoms: _1  and  _3
REMARK    2  A    between atoms: _3  and  _4
REMARK    3  A    between atoms: _7  and  _9
REMARK    4  A    between atoms: _9  and  _10
REMARK    5  A    between atoms: _9  and  _12
REMARK    6  A    between atoms: _12  and  _13
REMARK    7  A    between atoms: _13  and  _14
REMARK    8  A    between atoms: _14  and  _15
REMARK    9  A    between atoms: _15  and  _16
REMARK   10  A    between atoms: _20  and  _22
REMARK   11  A    between atoms: _22  and  _23
REMARK   12  A    between atoms: _22  and  _25
REMARK   13  A    between atoms: _25  and  _26
REMARK   14  A    between atoms: _32  and  _34
REMARK   15  A    between atoms: _34  and  _35
REMARK   16  A    between atoms: _34  and  _37
REMARK   17  A    between atoms: _37  and  _38
REMARK   18  A    between atoms: _38  and  _39
REMARK   19  A    between atoms: _39  and  _40
REMARK   20  A    between atoms: _49  and  _51
REMARK   21  A    between atoms: _51  and  _52
REMARK   22  A    between atoms: _51  and  _54
REMARK   23  A    between atoms: _54  and  _55
REMARK   24  A    between atoms: _55  and  _56
REMARK   25  A    between atoms: _61  and  _63
REMARK   26  A    between atoms: _63  and  _64
REMARK   27  A    between atoms: _63  and  _66
REMARK   28  A    between atoms: _66  and  _67
REMARK   29  A    between atoms: _72  and  _74
REMARK   30  A    between atoms: _74  and  _75
REMARK   31  A    between atoms: _74  and  _77
REMARK   32  A    between atoms: _77  and  _78
REMARK   33  A    between atoms: _81  and  _83
REMARK   34  A    between atoms: _83  and  _84
REMARK   35  A    between atoms: _83  and  _86
REMARK   36  A    between atoms: _86  and  _87
REMARK   37  A    between atoms: _87  and  _88
REMARK   38  A    between atoms: _88  and  _89
REMARK   39  A    between atoms: _98  and  _100
REMARK   40  A    between atoms: _100  and  _101
REMARK   41  A    between atoms: _100  and  _103
REMARK   42  A    between atoms: _103  and  _104
REMARK   43  A    between atoms: _104  and  _105
REMARK   44  A    between atoms: _105  and  _106
REMARK   45  A    between atoms: _106  and  _107
REMARK   46  A    between atoms: _111  and  _113
REMARK   47  A    between atoms: _113  and  _114
REMARK   48  A    between atoms: _113  and  _116
REMARK   49  A    between atoms: _119  and  _121
REMARK   50  A    between atoms: _121  and  _122
REMARK   51  A    between atoms: _121  and  _124
REMARK   52  A    between atoms: _124  and  _125
REMARK   53  A    between atoms: _130  and  _132
REMARK   54  A    between atoms: _132  and  _133
REMARK   55  A    between atoms: _132  and  _135
REMARK   56  A    between atoms: _135  and  _136
REMARK   57  A    between atoms: _139  and  _141
REMARK   58  A    between atoms: _141  and  _142
REMARK   59  A    between atoms: _145  and  _147
REMARK   60  A    between atoms: _154  and  _157
REMARK   61  A    between atoms: _157  and  _158
REMARK   62  A    between atoms: _158  and  _159
REMARK   63  A    between atoms: _159  and  _160
REMARK   64  A    between atoms: _160  and  _161
REMARK   65  A    between atoms: _167  and  _170
REMARK   66  A    between atoms: _170  and  _171
REMARK   67  A    between atoms: _183  and  _186
REMARK   68  A    between atoms: _186  and  _187
REMARK   69  A    between atoms: _187  and  _188
REMARK   70  A    between atoms: _195  and  _198
REMARK   71  A    between atoms: _198  and  _199
REMARK   72  A    between atoms: _204  and  _207
REMARK   73  A    between atoms: _207  and  _208
REMARK   74  A    between atoms: _215  and  _216
REMARK   75  A    between atoms: _220  and  _222
REMARK   76  A    between atoms: _222  and  _223
REMARK   77  A    between atoms: _222  and  _225
REMARK   78  A    between atoms: _225  and  _226
REMARK   79  A    between atoms: _231  and  _232
REMARK   80  A    between atoms: _234  and  _236
REMARK   81  A    between atoms: _236  and  _237
REMARK   82  A    between atoms: _236  and  _239
REMARK   83  A    between atoms: _242  and  _244
REMARK   84  A    between atoms: _244  and  _245
REMARK   85  A    between atoms: _248  and  _250
REMARK   86  A    between atoms: _250  and  _251
REMARK   87  A    between atoms: _250  and  _253
REMARK   88  A    between atoms: _255  and  _257
REMARK   89  A    between atoms: _257  and  _258
REMARK   90  A    between atoms: _257  and  _260
REMARK   91  A    between atoms: _260  and  _261
REMARK   92  A    between atoms: _261  and  _262
REMARK   93  A    between atoms: _266  and  _267
REMARK   94  A    between atoms: _272  and  _274
REMARK   95  A    between atoms: _274  and  _275
REMARK   96  A    between atoms: _274  and  _277
REMARK   97  A    between atoms: _280  and  _282
REMARK   98  A    between atoms: _282  and  _283
REMARK   99  A    between atoms: _282  and  _285
REMARK  100  A    between atoms: _285  and  _286
REMARK  101  A    between atoms: _291  and  _293
REMARK  102  A    between atoms: _293  and  _294
REMARK  103  A    between atoms: _293  and  _296
REMARK  104  A    between atoms: _296  and  _297
REMARK  105  A    between atoms: _303  and  _305
REMARK  106  A    between atoms: _305  and  _306
REMARK  107  A    between atoms: _305  and  _308
REMARK  108  A    between atoms: _308  and  _309
REMARK  109  A    between atoms: _312  and  _314
REMARK  110  A    between atoms: _314  and  _315
REMARK                            x       y       z     vdW  Elec       q    Type
REMARK                         _______ _______ _______ _____ _____    ______ ____
ROOT
ATOM      1  O   HOH     1      43.387   4.087  16.612  0.00  0.00    +0.000 OA
ENDROOT
TORSDOF 0
REMARK  Name = ../refined-set-2016/1o0f/1o0f_pocket.pdb
REMARK  110 active torsions:
REMARK  status: ('A' for Active; 'I' for Inactive)
REMARK    1  A    between atoms: _1  and  _3
REMARK    2  A    between atoms: _3  and  _4
REMARK    3  A    between atoms: _7  and  _9
REMARK    4  A    between atoms: _9  and  _10
REMARK    5  A    between atoms: _9  and  _12
REMARK    6  A    between atoms: _12  and  _13
REMARK    7  A    between atoms: _13  and  _14
REMARK    8  A    between atoms: _14  and  _15
REMARK    9  A    between atoms: _15  and  _16
REMARK   10  A    between atoms: _20  and  _22
REMARK   11  A    between atoms: _22  and  _23
REMARK   12  A    between atoms: _22  and  _25
REMARK   13  A    between atoms: _25  and  _26
REMARK   14  A    between atoms: _32  and  _34
REMARK   15  A    between atoms: _34  and  _35
REMARK   16  A    between atoms: _34  and  _37
REMARK   17  A    between atoms: _37  and  _38
REMARK   18  A    between atoms: _38  and  _39
REMARK   19  A    between atoms: _39  and  _40
REMARK   20  A    between atoms: _49  and  _51
REMARK   21  A    between atoms: _51  and  _52
REMARK   22  A    between atoms: _51  and  _54
REMARK   23  A    between atoms: _54  and  _55
REMARK   24  A    between atoms: _55  and  _56
REMARK   25  A    between atoms: _61  and  _63
REMARK   26  A    between atoms: _63  and  _64
REMARK   27  A    between atoms: _63  and  _66
REMARK   28  A    between atoms: _66  and  _67
REMARK   29  A    between atoms: _72  and  _74
REMARK   30  A    between atoms: _74  and  _75
REMARK   31  A    between atoms: _74  and  _77
REMARK   32  A    between atoms: _77  and  _78
REMARK   33  A    between atoms: _81  and  _83
REMARK   34  A    between atoms: _83  and  _84
REMARK   35  A    between atoms: _83  and  _86
REMARK   36  A    between atoms: _86  and  _87
REMARK   37  A    between atoms: _87  and  _88
REMARK   38  A    between atoms: _88  and  _89
REMARK   39  A    between atoms: _98  and  _100
REMARK   40  A    between atoms: _100  and  _101
REMARK   41  A    between atoms: _100  and  _103
REMARK   42  A    between atoms: _103  and  _104
REMARK   43  A    between atoms: _104  and  _105
REMARK   44  A    between atoms: _105  and  _106
REMARK   45  A    between atoms: _106  and  _107
REMARK   46  A    between atoms: _111  and  _113
REMARK   47  A    between atoms: _113  and  _114
REMARK   48  A    between atoms: _113  and  _116
REMARK   49  A    between atoms: _119  and  _121
REMARK   50  A    between atoms: _121  and  _122
REMARK   51  A    between atoms: _121  and  _124
REMARK   52  A    between atoms: _124  and  _125
REMARK   53  A    between atoms: _130  and  _132
REMARK   54  A    between atoms: _132  and  _133
REMARK   55  A    between atoms: _132  and  _135
REMARK   56  A    between atoms: _135  and  _136
REMARK   57  A    between atoms: _139  and  _141
REMARK   58  A    between atoms: _141  and  _142
REMARK   59  A    between atoms: _145  and  _147
REMARK   60  A    between atoms: _154  and  _157
REMARK   61  A    between atoms: _157  and  _158
REMARK   62  A    between atoms: _158  and  _159
REMARK   63  A    between atoms: _159  and  _160
REMARK   64  A    between atoms: _160  and  _161
REMARK   65  A    between atoms: _167  and  _170
REMARK   66  A    between atoms: _170  and  _171
REMARK   67  A    between atoms: _183  and  _186
REMARK   68  A    between atoms: _186  and  _187
REMARK   69  A    between atoms: _187  and  _188
REMARK   70  A    between atoms: _195  and  _198
REMARK   71  A    between atoms: _198  and  _199
REMARK   72  A    between atoms: _204  and  _207
REMARK   73  A    between atoms: _207  and  _208
REMARK   74  A    between atoms: _215  and  _216
REMARK   75  A    between atoms: _220  and  _222
REMARK   76  A    between atoms: _222  and  _223
REMARK   77  A    between atoms: _222  and  _225
REMARK   78  A    between atoms: _225  and  _226
REMARK   79  A    between atoms: _231  and  _232
REMARK   80  A    between atoms: _234  and  _236
REMARK   81  A    between atoms: _236  and  _237
REMARK   82  A    between atoms: _236  and  _239
REMARK   83  A    between atoms: _242  and  _244
REMARK   84  A    between atoms: _244  and  _245
REMARK   85  A    between atoms: _248  and  _250
REMARK   86  A    between atoms: _250  and  _251
REMARK   87  A    between atoms: _250  and  _253
REMARK   88  A    between atoms: _255  and  _257
REMARK   89  A    between atoms: _257  and  _258
REMARK   90  A    between atoms: _257  and  _260
REMARK   91  A    between atoms: _260  and  _261
REMARK   92  A    between atoms: _261  and  _262
REMARK   93  A    between atoms: _266  and  _267
REMARK   94  A    between atoms: _272  and  _274
REMARK   95  A    between atoms: _274  and  _275
REMARK   96  A    between atoms: _274  and  _277
REMARK   97  A    between atoms: _280  and  _282
REMARK   98  A    between atoms: _282  and  _283
REMARK   99  A    between atoms: _282  and  _285
REMARK  100  A    between atoms: _285  and  _286
REMARK  101  A    between atoms: _291  and  _293
REMARK  102  A    between atoms: _293  and  _294
REMARK  103  A    between atoms: _293  and  _296
REMARK  104  A    between atoms: _296  and  _297
REMARK  105  A    between atoms: _303  and  _305
REMARK  106  A    between atoms: _305  and  _306
REMARK  107  A    between atoms: _305  and  _308
REMARK  108  A    between atoms: _308  and  _309
REMARK  109  A    between atoms: _312  and  _314
REMARK  110  A    between atoms: _314  and  _315
REMARK                            x       y       z     vdW  Elec       q    Type
REMARK                         _______ _______ _______ _____ _____    ______ ____
ROOT
ATOM      1  O   HOH     1      42.218   1.723  17.434  0.00  0.00    +0.000 OA
ENDROOT
TORSDOF 0
REMARK  Name = ../refined-set-2016/1o0f/1o0f_pocket.pdb
REMARK  110 active torsions:
REMARK  status: ('A' for Active; 'I' for Inactive)
REMARK    1  A    between atoms: _1  and  _3
REMARK    2  A    between atoms: _3  and  _4
REMARK    3  A    between atoms: _7  and  _9
REMARK    4  A    between atoms: _9  and  _10
REMARK    5  A    between atoms: _9  and  _12
REMARK    6  A    between atoms: _12  and  _13
REMARK    7  A    between atoms: _13  and  _14
REMARK    8  A    between atoms: _14  and  _15
REMARK    9  A    between atoms: _15  and  _16
REMARK   10  A    between atoms: _20  and  _22
REMARK   11  A    between atoms: _22  and  _23
REMARK   12  A    between atoms: _22  and  _25
REMARK   13  A    between atoms: _25  and  _26
REMARK   14  A    between atoms: _32  and  _34
REMARK   15  A    between atoms: _34  and  _35
REMARK   16  A    between atoms: _34  and  _37
REMARK   17  A    between atoms: _37  and  _38
REMARK   18  A    between atoms: _38  and  _39
REMARK   19  A    between atoms: _39  and  _40
REMARK   20  A    between atoms: _49  and  _51
REMARK   21  A    between atoms: _51  and  _52
REMARK   22  A    between atoms: _51  and  _54
REMARK   23  A    between atoms: _54  and  _55
REMARK   24  A    between atoms: _55  and  _56
REMARK   25  A    between atoms: _61  and  _63
REMARK   26  A    between atoms: _63  and  _64
REMARK   27  A    between atoms: _63  and  _66
REMARK   28  A    between atoms: _66  and  _67
REMARK   29  A    between atoms: _72  and  _74
REMARK   30  A    between atoms: _74  and  _75
REMARK   31  A    between atoms: _74  and  _77
REMARK   32  A    between atoms: _77  and  _78
REMARK   33  A    between atoms: _81  and  _83
REMARK   34  A    between atoms: _83  and  _84
REMARK   35  A    between atoms: _83  and  _86
REMARK   36  A    between atoms: _86  and  _87
REMARK   37  A    between atoms: _87  and  _88
REMARK   38  A    between atoms: _88  and  _89
REMARK   39  A    between atoms: _98  and  _100
REMARK   40  A    between atoms: _100  and  _101
REMARK   41  A    between atoms: _100  and  _103
REMARK   42  A    between atoms: _103  and  _104
REMARK   43  A    between atoms: _104  and  _105
REMARK   44  A    between atoms: _105  and  _106
REMARK   45  A    between atoms: _106  and  _107
REMARK   46  A    between atoms: _111  and  _113
REMARK   47  A    between atoms: _113  and  _114
REMARK   48  A    between atoms: _113  and  _116
REMARK   49  A    between atoms: _119  and  _121
REMARK   50  A    between atoms: _121  and  _122
REMARK   51  A    between atoms: _121  and  _124
REMARK   52  A    between atoms: _124  and  _125
REMARK   53  A    between atoms: _130  and  _132
REMARK   54  A    between atoms: _132  and  _133
REMARK   55  A    between atoms: _132  and  _135
REMARK   56  A    between atoms: _135  and  _136
REMARK   57  A    between atoms: _139  and  _141
REMARK   58  A    between atoms: _141  and  _142
REMARK   59  A    between atoms: _145  and  _147
REMARK   60  A    between atoms: _154  and  _157
REMARK   61  A    between atoms: _157  and  _158
REMARK   62  A    between atoms: _158  and  _159
REMARK   63  A    between atoms: _159  and  _160
REMARK   64  A    between atoms: _160  and  _161
REMARK   65  A    between atoms: _167  and  _170
REMARK   66  A    between atoms: _170  and  _171
REMARK   67  A    between atoms: _183  and  _186
REMARK   68  A    between atoms: _186  and  _187
REMARK   69  A    between atoms: _187  and  _188
REMARK   70  A    between atoms: _195  and  _198
REMARK   71  A    between atoms: _198  and  _199
REMARK   72  A    between atoms: _204  and  _207
REMARK   73  A    between atoms: _207  and  _208
REMARK   74  A    between atoms: _215  and  _216
REMARK   75  A    between atoms: _220  and  _222
REMARK   76  A    between atoms: _222  and  _223
REMARK   77  A    between atoms: _222  and  _225
REMARK   78  A    between atoms: _225  and  _226
REMARK   79  A    between atoms: _231  and  _232
REMARK   80  A    between atoms: _234  and  _236
REMARK   81  A    between atoms: _236  and  _237
REMARK   82  A    between atoms: _236  and  _239
REMARK   83  A    between atoms: _242  and  _244
REMARK   84  A    between atoms: _244  and  _245
REMARK   85  A    between atoms: _248  and  _250
REMARK   86  A    between atoms: _250  and  _251
REMARK   87  A    between atoms: _250  and  _253
REMARK   88  A    between atoms: _255  and  _257
REMARK   89  A    between atoms: _257  and  _258
REMARK   90  A    between atoms: _257  and  _260
REMARK   91  A    between atoms: _260  and  _261
REMARK   92  A    between atoms: _261  and  _262
REMARK   93  A    between atoms: _266  and  _267
REMARK   94  A    between atoms: _272  and  _274
REMARK   95  A    between atoms: _274  and  _275
REMARK   96  A    between atoms: _274  and  _277
REMARK   97  A    between atoms: _280  and  _282
REMARK   98  A    between atoms: _282  and  _283
REMARK   99  A    between atoms: _282  and  _285
REMARK  100  A    between atoms: _285  and  _286
REMARK  101  A    between atoms: _291  and  _293
REMARK  102  A    between atoms: _293  and  _294
REMARK  103  A    between atoms: _293  and  _296
REMARK  104  A    between atoms: _296  and  _297
REMARK  105  A    between atoms: _303  and  _305
REMARK  106  A    between atoms: _305  and  _306
REMARK  107  A    between atoms: _305  and  _308
REMARK  108  A    between atoms: _308  and  _309
REMARK  109  A    between atoms: _312  and  _314
REMARK  110  A    between atoms: _314  and  _315
REMARK                            x       y       z     vdW  Elec       q    Type
REMARK                         _______ _______ _______ _____ _____    ______ ____
ROOT
ATOM      1  O   HOH     1      41.766   6.187  18.477  0.00  0.00    +0.000 OA
ENDROOT
TORSDOF 0
REMARK  Name = ../refined-set-2016/1o0f/1o0f_pocket.pdb
REMARK  110 active torsions:
REMARK  status: ('A' for Active; 'I' for Inactive)
REMARK    1  A    between atoms: _1  and  _3
REMARK    2  A    between atoms: _3  and  _4
REMARK    3  A    between atoms: _7  and  _9
REMARK    4  A    between atoms: _9  and  _10
REMARK    5  A    between atoms: _9  and  _12
REMARK    6  A    between atoms: _12  and  _13
REMARK    7  A    between atoms: _13  and  _14
REMARK    8  A    between atoms: _14  and  _15
REMARK    9  A    between atoms: _15  and  _16
REMARK   10  A    between atoms: _20  and  _22
REMARK   11  A    between atoms: _22  and  _23
REMARK   12  A    between atoms: _22  and  _25
REMARK   13  A    between atoms: _25  and  _26
REMARK   14  A    between atoms: _32  and  _34
REMARK   15  A    between atoms: _34  and  _35
REMARK   16  A    between atoms: _34  and  _37
REMARK   17  A    between atoms: _37  and  _38
REMARK   18  A    between atoms: _38  and  _39
REMARK   19  A    between atoms: _39  and  _40
REMARK   20  A    between atoms: _49  and  _51
REMARK   21  A    between atoms: _51  and  _52
REMARK   22  A    between atoms: _51  and  _54
REMARK   23  A    between atoms: _54  and  _55
REMARK   24  A    between atoms: _55  and  _56
REMARK   25  A    between atoms: _61  and  _63
REMARK   26  A    between atoms: _63  and  _64
REMARK   27  A    between atoms: _63  and  _66
REMARK   28  A    between atoms: _66  and  _67
REMARK   29  A    between atoms: _72  and  _74
REMARK   30  A    between atoms: _74  and  _75
REMARK   31  A    between atoms: _74  and  _77
REMARK   32  A    between atoms: _77  and  _78
REMARK   33  A    between atoms: _81  and  _83
REMARK   34  A    between atoms: _83  and  _84
REMARK   35  A    between atoms: _83  and  _86
REMARK   36  A    between atoms: _86  and  _87
REMARK   37  A    between atoms: _87  and  _88
REMARK   38  A    between atoms: _88  and  _89
REMARK   39  A    between atoms: _98  and  _100
REMARK   40  A    between atoms: _100  and  _101
REMARK   41  A    between atoms: _100  and  _103
REMARK   42  A    between atoms: _103  and  _104
REMARK   43  A    between atoms: _104  and  _105
REMARK   44  A    between atoms: _105  and  _106
REMARK   45  A    between atoms: _106  and  _107
REMARK   46  A    between atoms: _111  and  _113
REMARK   47  A    between atoms: _113  and  _114
REMARK   48  A    between atoms: _113  and  _116
REMARK   49  A    between atoms: _119  and  _121
REMARK   50  A    between atoms: _121  and  _122
REMARK   51  A    between atoms: _121  and  _124
REMARK   52  A    between atoms: _124  and  _125
REMARK   53  A    between atoms: _130  and  _132
REMARK   54  A    between atoms: _132  and  _133
REMARK   55  A    between atoms: _132  and  _135
REMARK   56  A    between atoms: _135  and  _136
REMARK   57  A    between atoms: _139  and  _141
REMARK   58  A    between atoms: _141  and  _142
REMARK   59  A    between atoms: _145  and  _147
REMARK   60  A    between atoms: _154  and  _157
REMARK   61  A    between atoms: _157  and  _158
REMARK   62  A    between atoms: _158  and  _159
REMARK   63  A    between atoms: _159  and  _160
REMARK   64  A    between atoms: _160  and  _161
REMARK   65  A    between atoms: _167  and  _170
REMARK   66  A    between atoms: _170  and  _171
REMARK   67  A    between atoms: _183  and  _186
REMARK   68  A    between atoms: _186  and  _187
REMARK   69  A    between atoms: _187  and  _188
REMARK   70  A    between atoms: _195  and  _198
REMARK   71  A    between atoms: _198  and  _199
REMARK   72  A    between atoms: _204  and  _207
REMARK   73  A    between atoms: _207  and  _208
REMARK   74  A    between atoms: _215  and  _216
REMARK   75  A    between atoms: _220  and  _222
REMARK   76  A    between atoms: _222  and  _223
REMARK   77  A    between atoms: _222  and  _225
REMARK   78  A    between atoms: _225  and  _226
REMARK   79  A    between atoms: _231  and  _232
REMARK   80  A    between atoms: _234  and  _236
REMARK   81  A    between atoms: _236  and  _237
REMARK   82  A    between atoms: _236  and  _239
REMARK   83  A    between atoms: _242  and  _244
REMARK   84  A    between atoms: _244  and  _245
REMARK   85  A    between atoms: _248  and  _250
REMARK   86  A    between atoms: _250  and  _251
REMARK   87  A    between atoms: _250  and  _253
REMARK   88  A    between atoms: _255  and  _257
REMARK   89  A    between atoms: _257  and  _258
REMARK   90  A    between atoms: _257  and  _260
REMARK   91  A    between atoms: _260  and  _261
REMARK   92  A    between atoms: _261  and  _262
REMARK   93  A    between atoms: _266  and  _267
REMARK   94  A    between atoms: _272  and  _274
REMARK   95  A    between atoms: _274  and  _275
REMARK   96  A    between atoms: _274  and  _277
REMARK   97  A    between atoms: _280  and  _282
REMARK   98  A    between atoms: _282  and  _283
REMARK   99  A    between atoms: _282  and  _285
REMARK  100  A    between atoms: _285  and  _286
REMARK  101  A    between atoms: _291  and  _293
REMARK  102  A    between atoms: _293  and  _294
REMARK  103  A    between atoms: _293  and  _296
REMARK  104  A    between atoms: _296  and  _297
REMARK  105  A    between atoms: _303  and  _305
REMARK  106  A    between atoms: _305  and  _306
REMARK  107  A    between atoms: _305  and  _308
REMARK  108  A    between atoms: _308  and  _309
REMARK  109  A    between atoms: _312  and  _314
REMARK  110  A    between atoms: _314  and  _315
REMARK                            x       y       z     vdW  Elec       q    Type
REMARK                         _______ _______ _______ _____ _____    ______ ____
ROOT
ATOM      1  O   HOH     1      38.753   6.334  22.615  0.00  0.00    +0.000 OA
ENDROOT
TORSDOF 0
REMARK  Name = ../refined-set-2016/1o0f/1o0f_pocket.pdb
REMARK  110 active torsions:
REMARK  status: ('A' for Active; 'I' for Inactive)
REMARK    1  A    between atoms: _1  and  _3
REMARK    2  A    between atoms: _3  and  _4
REMARK    3  A    between atoms: _7  and  _9
REMARK    4  A    between atoms: _9  and  _10
REMARK    5  A    between atoms: _9  and  _12
REMARK    6  A    between atoms: _12  and  _13
REMARK    7  A    between atoms: _13  and  _14
REMARK    8  A    between atoms: _14  and  _15
REMARK    9  A    between atoms: _15  and  _16
REMARK   10  A    between atoms: _20  and  _22
REMARK   11  A    between atoms: _22  and  _23
REMARK   12  A    between atoms: _22  and  _25
REMARK   13  A    between atoms: _25  and  _26
REMARK   14  A    between atoms: _32  and  _34
REMARK   15  A    between atoms: _34  and  _35
REMARK   16  A    between atoms: _34  and  _37
REMARK   17  A    between atoms: _37  and  _38
REMARK   18  A    between atoms: _38  and  _39
REMARK   19  A    between atoms: _39  and  _40
REMARK   20  A    between atoms: _49  and  _51
REMARK   21  A    between atoms: _51  and  _52
REMARK   22  A    between atoms: _51  and  _54
REMARK   23  A    between atoms: _54  and  _55
REMARK   24  A    between atoms: _55  and  _56
REMARK   25  A    between atoms: _61  and  _63
REMARK   26  A    between atoms: _63  and  _64
REMARK   27  A    between atoms: _63  and  _66
REMARK   28  A    between atoms: _66  and  _67
REMARK   29  A    between atoms: _72  and  _74
REMARK   30  A    between atoms: _74  and  _75
REMARK   31  A    between atoms: _74  and  _77
REMARK   32  A    between atoms: _77  and  _78
REMARK   33  A    between atoms: _81  and  _83
REMARK   34  A    between atoms: _83  and  _84
REMARK   35  A    between atoms: _83  and  _86
REMARK   36  A    between atoms: _86  and  _87
REMARK   37  A    between atoms: _87  and  _88
REMARK   38  A    between atoms: _88  and  _89
REMARK   39  A    between atoms: _98  and  _100
REMARK   40  A    between atoms: _100  and  _101
REMARK   41  A    between atoms: _100  and  _103
REMARK   42  A    between atoms: _103  and  _104
REMARK   43  A    between atoms: _104  and  _105
REMARK   44  A    between atoms: _105  and  _106
REMARK   45  A    between atoms: _106  and  _107
REMARK   46  A    between atoms: _111  and  _113
REMARK   47  A    between atoms: _113  and  _114
REMARK   48  A    between atoms: _113  and  _116
REMARK   49  A    between atoms: _119  and  _121
REMARK   50  A    between atoms: _121  and  _122
REMARK   51  A    between atoms: _121  and  _124
REMARK   52  A    between atoms: _124  and  _125
REMARK   53  A    between atoms: _130  and  _132
REMARK   54  A    between atoms: _132  and  _133
REMARK   55  A    between atoms: _132  and  _135
REMARK   56  A    between atoms: _135  and  _136
REMARK   57  A    between atoms: _139  and  _141
REMARK   58  A    between atoms: _141  and  _142
REMARK   59  A    between atoms: _145  and  _147
REMARK   60  A    between atoms: _154  and  _157
REMARK   61  A    between atoms: _157  and  _158
REMARK   62  A    between atoms: _158  and  _159
REMARK   63  A    between atoms: _159  and  _160
REMARK   64  A    between atoms: _160  and  _161
REMARK   65  A    between atoms: _167  and  _170
REMARK   66  A    between atoms: _170  and  _171
REMARK   67  A    between atoms: _183  and  _186
REMARK   68  A    between atoms: _186  and  _187
REMARK   69  A    between atoms: _187  and  _188
REMARK   70  A    between atoms: _195  and  _198
REMARK   71  A    between atoms: _198  and  _199
REMARK   72  A    between atoms: _204  and  _207
REMARK   73  A    between atoms: _207  and  _208
REMARK   74  A    between atoms: _215  and  _216
REMARK   75  A    between atoms: _220  and  _222
REMARK   76  A    between atoms: _222  and  _223
REMARK   77  A    between atoms: _222  and  _225
REMARK   78  A    between atoms: _225  and  _226
REMARK   79  A    between atoms: _231  and  _232
REMARK   80  A    between atoms: _234  and  _236
REMARK   81  A    between atoms: _236  and  _237
REMARK   82  A    between atoms: _236  and  _239
REMARK   83  A    between atoms: _242  and  _244
REMARK   84  A    between atoms: _244  and  _245
REMARK   85  A    between atoms: _248  and  _250
REMARK   86  A    between atoms: _250  and  _251
REMARK   87  A    between atoms: _250  and  _253
REMARK   88  A    between atoms: _255  and  _257
REMARK   89  A    between atoms: _257  and  _258
REMARK   90  A    between atoms: _257  and  _260
REMARK   91  A    between atoms: _260  and  _261
REMARK   92  A    between atoms: _261  and  _262
REMARK   93  A    between atoms: _266  and  _267
REMARK   94  A    between atoms: _272  and  _274
REMARK   95  A    between atoms: _274  and  _275
REMARK   96  A    between atoms: _274  and  _277
REMARK   97  A    between atoms: _280  and  _282
REMARK   98  A    between atoms: _282  and  _283
REMARK   99  A    between atoms: _282  and  _285
REMARK  100  A    between atoms: _285  and  _286
REMARK  101  A    between atoms: _291  and  _293
REMARK  102  A    between atoms: _293  and  _294
REMARK  103  A    between atoms: _293  and  _296
REMARK  104  A    between atoms: _296  and  _297
REMARK  105  A    between atoms: _303  and  _305
REMARK  106  A    between atoms: _305  and  _306
REMARK  107  A    between atoms: _305  and  _308
REMARK  108  A    between atoms: _308  and  _309
REMARK  109  A    between atoms: _312  and  _314
REMARK  110  A    between atoms: _314  and  _315
REMARK                            x       y       z     vdW  Elec       q    Type
REMARK                         _______ _______ _______ _____ _____    ______ ____
ROOT
ATOM      1  O   HOH     1      35.716   7.180  24.046  0.00  0.00    +0.000 OA
ENDROOT
TORSDOF 0
REMARK  Name = ../refined-set-2016/1o0f/1o0f_pocket.pdb
REMARK  110 active torsions:
REMARK  status: ('A' for Active; 'I' for Inactive)
REMARK    1  A    between atoms: _1  and  _3
REMARK    2  A    between atoms: _3  and  _4
REMARK    3  A    between atoms: _7  and  _9
REMARK    4  A    between atoms: _9  and  _10
REMARK    5  A    between atoms: _9  and  _12
REMARK    6  A    between atoms: _12  and  _13
REMARK    7  A    between atoms: _13  and  _14
REMARK    8  A    between atoms: _14  and  _15
REMARK    9  A    between atoms: _15  and  _16
REMARK   10  A    between atoms: _20  and  _22
REMARK   11  A    between atoms: _22  and  _23
REMARK   12  A    between atoms: _22  and  _25
REMARK   13  A    between atoms: _25  and  _26
REMARK   14  A    between atoms: _32  and  _34
REMARK   15  A    between atoms: _34  and  _35
REMARK   16  A    between atoms: _34  and  _37
REMARK   17  A    between atoms: _37  and  _38
REMARK   18  A    between atoms: _38  and  _39
REMARK   19  A    between atoms: _39  and  _40
REMARK   20  A    between atoms: _49  and  _51
REMARK   21  A    between atoms: _51  and  _52
REMARK   22  A    between atoms: _51  and  _54
REMARK   23  A    between atoms: _54  and  _55
REMARK   24  A    between atoms: _55  and  _56
REMARK   25  A    between atoms: _61  and  _63
REMARK   26  A    between atoms: _63  and  _64
REMARK   27  A    between atoms: _63  and  _66
REMARK   28  A    between atoms: _66  and  _67
REMARK   29  A    between atoms: _72  and  _74
REMARK   30  A    between atoms: _74  and  _75
REMARK   31  A    between atoms: _74  and  _77
REMARK   32  A    between atoms: _77  and  _78
REMARK   33  A    between atoms: _81  and  _83
REMARK   34  A    between atoms: _83  and  _84
REMARK   35  A    between atoms: _83  and  _86
REMARK   36  A    between atoms: _86  and  _87
REMARK   37  A    between atoms: _87  and  _88
REMARK   38  A    between atoms: _88  and  _89
REMARK   39  A    between atoms: _98  and  _100
REMARK   40  A    between atoms: _100  and  _101
REMARK   41  A    between atoms: _100  and  _103
REMARK   42  A    between atoms: _103  and  _104
REMARK   43  A    between atoms: _104  and  _105
REMARK   44  A    between atoms: _105  and  _106
REMARK   45  A    between atoms: _106  and  _107
REMARK   46  A    between atoms: _111  and  _113
REMARK   47  A    between atoms: _113  and  _114
REMARK   48  A    between atoms: _113  and  _116
REMARK   49  A    between atoms: _119  and  _121
REMARK   50  A    between atoms: _121  and  _122
REMARK   51  A    between atoms: _121  and  _124
REMARK   52  A    between atoms: _124  and  _125
REMARK   53  A    between atoms: _130  and  _132
REMARK   54  A    between atoms: _132  and  _133
REMARK   55  A    between atoms: _132  and  _135
REMARK   56  A    between atoms: _135  and  _136
REMARK   57  A    between atoms: _139  and  _141
REMARK   58  A    between atoms: _141  and  _142
REMARK   59  A    between atoms: _145  and  _147
REMARK   60  A    between atoms: _154  and  _157
REMARK   61  A    between atoms: _157  and  _158
REMARK   62  A    between atoms: _158  and  _159
REMARK   63  A    between atoms: _159  and  _160
REMARK   64  A    between atoms: _160  and  _161
REMARK   65  A    between atoms: _167  and  _170
REMARK   66  A    between atoms: _170  and  _171
REMARK   67  A    between atoms: _183  and  _186
REMARK   68  A    between atoms: _186  and  _187
REMARK   69  A    between atoms: _187  and  _188
REMARK   70  A    between atoms: _195  and  _198
REMARK   71  A    between atoms: _198  and  _199
REMARK   72  A    between atoms: _204  and  _207
REMARK   73  A    between atoms: _207  and  _208
REMARK   74  A    between atoms: _215  and  _216
REMARK   75  A    between atoms: _220  and  _222
REMARK   76  A    between atoms: _222  and  _223
REMARK   77  A    between atoms: _222  and  _225
REMARK   78  A    between atoms: _225  and  _226
REMARK   79  A    between atoms: _231  and  _232
REMARK   80  A    between atoms: _234  and  _236
REMARK   81  A    between atoms: _236  and  _237
REMARK   82  A    between atoms: _236  and  _239
REMARK   83  A    between atoms: _242  and  _244
REMARK   84  A    between atoms: _244  and  _245
REMARK   85  A    between atoms: _248  and  _250
REMARK   86  A    between atoms: _250  and  _251
REMARK   87  A    between atoms: _250  and  _253
REMARK   88  A    between atoms: _255  and  _257
REMARK   89  A    between atoms: _257  and  _258
REMARK   90  A    between atoms: _257  and  _260
REMARK   91  A    between atoms: _260  and  _261
REMARK   92  A    between atoms: _261  and  _262
REMARK   93  A    between atoms: _266  and  _267
REMARK   94  A    between atoms: _272  and  _274
REMARK   95  A    between atoms: _274  and  _275
REMARK   96  A    between atoms: _274  and  _277
REMARK   97  A    between atoms: _280  and  _282
REMARK   98  A    between atoms: _282  and  _283
REMARK   99  A    between atoms: _282  and  _285
REMARK  100  A    between atoms: _285  and  _286
REMARK  101  A    between atoms: _291  and  _293
REMARK  102  A    between atoms: _293  and  _294
REMARK  103  A    between atoms: _293  and  _296
REMARK  104  A    between atoms: _296  and  _297
REMARK  105  A    between atoms: _303  and  _305
REMARK  106  A    between atoms: _305  and  _306
REMARK  107  A    between atoms: _305  and  _308
REMARK  108  A    between atoms: _308  and  _309
REMARK  109  A    between atoms: _312  and  _314
REMARK  110  A    between atoms: _314  and  _315
REMARK                            x       y       z     vdW  Elec       q    Type
REMARK                         _______ _______ _______ _____ _____    ______ ____
ROOT
ATOM      1  O   HOH     1      31.179   7.784  26.023  0.00  0.00    +0.000 OA
ENDROOT
TORSDOF 0
REMARK  Name = ../refined-set-2016/1o0f/1o0f_pocket.pdb
REMARK  110 active torsions:
REMARK  status: ('A' for Active; 'I' for Inactive)
REMARK    1  A    between atoms: _1  and  _3
REMARK    2  A    between atoms: _3  and  _4
REMARK    3  A    between atoms: _7  and  _9
REMARK    4  A    between atoms: _9  and  _10
REMARK    5  A    between atoms: _9  and  _12
REMARK    6  A    between atoms: _12  and  _13
REMARK    7  A    between atoms: _13  and  _14
REMARK    8  A    between atoms: _14  and  _15
REMARK    9  A    between atoms: _15  and  _16
REMARK   10  A    between atoms: _20  and  _22
REMARK   11  A    between atoms: _22  and  _23
REMARK   12  A    between atoms: _22  and  _25
REMARK   13  A    between atoms: _25  and  _26
REMARK   14  A    between atoms: _32  and  _34
REMARK   15  A    between atoms: _34  and  _35
REMARK   16  A    between atoms: _34  and  _37
REMARK   17  A    between atoms: _37  and  _38
REMARK   18  A    between atoms: _38  and  _39
REMARK   19  A    between atoms: _39  and  _40
REMARK   20  A    between atoms: _49  and  _51
REMARK   21  A    between atoms: _51  and  _52
REMARK   22  A    between atoms: _51  and  _54
REMARK   23  A    between atoms: _54  and  _55
REMARK   24  A    between atoms: _55  and  _56
REMARK   25  A    between atoms: _61  and  _63
REMARK   26  A    between atoms: _63  and  _64
REMARK   27  A    between atoms: _63  and  _66
REMARK   28  A    between atoms: _66  and  _67
REMARK   29  A    between atoms: _72  and  _74
REMARK   30  A    between atoms: _74  and  _75
REMARK   31  A    between atoms: _74  and  _77
REMARK   32  A    between atoms: _77  and  _78
REMARK   33  A    between atoms: _81  and  _83
REMARK   34  A    between atoms: _83  and  _84
REMARK   35  A    between atoms: _83  and  _86
REMARK   36  A    between atoms: _86  and  _87
REMARK   37  A    between atoms: _87  and  _88
REMARK   38  A    between atoms: _88  and  _89
REMARK   39  A    between atoms: _98  and  _100
REMARK   40  A    between atoms: _100  and  _101
REMARK   41  A    between atoms: _100  and  _103
REMARK   42  A    between atoms: _103  and  _104
REMARK   43  A    between atoms: _104  and  _105
REMARK   44  A    between atoms: _105  and  _106
REMARK   45  A    between atoms: _106  and  _107
REMARK   46  A    between atoms: _111  and  _113
REMARK   47  A    between atoms: _113  and  _114
REMARK   48  A    between atoms: _113  and  _116
REMARK   49  A    between atoms: _119  and  _121
REMARK   50  A    between atoms: _121  and  _122
REMARK   51  A    between atoms: _121  and  _124
REMARK   52  A    between atoms: _124  and  _125
REMARK   53  A    between atoms: _130  and  _132
REMARK   54  A    between atoms: _132  and  _133
REMARK   55  A    between atoms: _132  and  _135
REMARK   56  A    between atoms: _135  and  _136
REMARK   57  A    between atoms: _139  and  _141
REMARK   58  A    between atoms: _141  and  _142
REMARK   59  A    between atoms: _145  and  _147
REMARK   60  A    between atoms: _154  and  _157
REMARK   61  A    between atoms: _157  and  _158
REMARK   62  A    between atoms: _158  and  _159
REMARK   63  A    between atoms: _159  and  _160
REMARK   64  A    between atoms: _160  and  _161
REMARK   65  A    between atoms: _167  and  _170
REMARK   66  A    between atoms: _170  and  _171
REMARK   67  A    between atoms: _183  and  _186
REMARK   68  A    between atoms: _186  and  _187
REMARK   69  A    between atoms: _187  and  _188
REMARK   70  A    between atoms: _195  and  _198
REMARK   71  A    between atoms: _198  and  _199
REMARK   72  A    between atoms: _204  and  _207
REMARK   73  A    between atoms: _207  and  _208
REMARK   74  A    between atoms: _215  and  _216
REMARK   75  A    between atoms: _220  and  _222
REMARK   76  A    between atoms: _222  and  _223
REMARK   77  A    between atoms: _222  and  _225
REMARK   78  A    between atoms: _225  and  _226
REMARK   79  A    between atoms: _231  and  _232
REMARK   80  A    between atoms: _234  and  _236
REMARK   81  A    between atoms: _236  and  _237
REMARK   82  A    between atoms: _236  and  _239
REMARK   83  A    between atoms: _242  and  _244
REMARK   84  A    between atoms: _244  and  _245
REMARK   85  A    between atoms: _248  and  _250
REMARK   86  A    between atoms: _250  and  _251
REMARK   87  A    between atoms: _250  and  _253
REMARK   88  A    between atoms: _255  and  _257
REMARK   89  A    between atoms: _257  and  _258
REMARK   90  A    between atoms: _257  and  _260
REMARK   91  A    between atoms: _260  and  _261
REMARK   92  A    between atoms: _261  and  _262
REMARK   93  A    between atoms: _266  and  _267
REMARK   94  A    between atoms: _272  and  _274
REMARK   95  A    between atoms: _274  and  _275
REMARK   96  A    between atoms: _274  and  _277
REMARK   97  A    between atoms: _280  and  _282
REMARK   98  A    between atoms: _282  and  _283
REMARK   99  A    between atoms: _282  and  _285
REMARK  100  A    between atoms: _285  and  _286
REMARK  101  A    between atoms: _291  and  _293
REMARK  102  A    between atoms: _293  and  _294
REMARK  103  A    between atoms: _293  and  _296
REMARK  104  A    between atoms: _296  and  _297
REMARK  105  A    between atoms: _303  and  _305
REMARK  106  A    between atoms: _305  and  _306
REMARK  107  A    between atoms: _305  and  _308
REMARK  108  A    between atoms: _308  and  _309
REMARK  109  A    between atoms: _312  and  _314
REMARK  110  A    between atoms: _314  and  _315
REMARK                            x       y       z     vdW  Elec       q    Type
REMARK                         _______ _______ _______ _____ _____    ______ ____
ROOT
ATOM      1  O   HOH     1      40.617   5.216  20.860  0.00  0.00    +0.000 OA
ENDROOT
TORSDOF 0
REMARK  Name = ../refined-set-2016/1o0f/1o0f_pocket.pdb
REMARK  110 active torsions:
REMARK  status: ('A' for Active; 'I' for Inactive)
REMARK    1  A    between atoms: _1  and  _3
REMARK    2  A    between atoms: _3  and  _4
REMARK    3  A    between atoms: _7  and  _9
REMARK    4  A    between atoms: _9  and  _10
REMARK    5  A    between atoms: _9  and  _12
REMARK    6  A    between atoms: _12  and  _13
REMARK    7  A    between atoms: _13  and  _14
REMARK    8  A    between atoms: _14  and  _15
REMARK    9  A    between atoms: _15  and  _16
REMARK   10  A    between atoms: _20  and  _22
REMARK   11  A    between atoms: _22  and  _23
REMARK   12  A    between atoms: _22  and  _25
REMARK   13  A    between atoms: _25  and  _26
REMARK   14  A    between atoms: _32  and  _34
REMARK   15  A    between atoms: _34  and  _35
REMARK   16  A    between atoms: _34  and  _37
REMARK   17  A    between atoms: _37  and  _38
REMARK   18  A    between atoms: _38  and  _39
REMARK   19  A    between atoms: _39  and  _40
REMARK   20  A    between atoms: _49  and  _51
REMARK   21  A    between atoms: _51  and  _52
REMARK   22  A    between atoms: _51  and  _54
REMARK   23  A    between atoms: _54  and  _55
REMARK   24  A    between atoms: _55  and  _56
REMARK   25  A    between atoms: _61  and  _63
REMARK   26  A    between atoms: _63  and  _64
REMARK   27  A    between atoms: _63  and  _66
REMARK   28  A    between atoms: _66  and  _67
REMARK   29  A    between atoms: _72  and  _74
REMARK   30  A    between atoms: _74  and  _75
REMARK   31  A    between atoms: _74  and  _77
REMARK   32  A    between atoms: _77  and  _78
REMARK   33  A    between atoms: _81  and  _83
REMARK   34  A    between atoms: _83  and  _84
REMARK   35  A    between atoms: _83  and  _86
REMARK   36  A    between atoms: _86  and  _87
REMARK   37  A    between atoms: _87  and  _88
REMARK   38  A    between atoms: _88  and  _89
REMARK   39  A    between atoms: _98  and  _100
REMARK   40  A    between atoms: _100  and  _101
REMARK   41  A    between atoms: _100  and  _103
REMARK   42  A    between atoms: _103  and  _104
REMARK   43  A    between atoms: _104  and  _105
REMARK   44  A    between atoms: _105  and  _106
REMARK   45  A    between atoms: _106  and  _107
REMARK   46  A    between atoms: _111  and  _113
REMARK   47  A    between atoms: _113  and  _114
REMARK   48  A    between atoms: _113  and  _116
REMARK   49  A    between atoms: _119  and  _121
REMARK   50  A    between atoms: _121  and  _122
REMARK   51  A    between atoms: _121  and  _124
REMARK   52  A    between atoms: _124  and  _125
REMARK   53  A    between atoms: _130  and  _132
REMARK   54  A    between atoms: _132  and  _133
REMARK   55  A    between atoms: _132  and  _135
REMARK   56  A    between atoms: _135  and  _136
REMARK   57  A    between atoms: _139  and  _141
REMARK   58  A    between atoms: _141  and  _142
REMARK   59  A    between atoms: _145  and  _147
REMARK   60  A    between atoms: _154  and  _157
REMARK   61  A    between atoms: _157  and  _158
REMARK   62  A    between atoms: _158  and  _159
REMARK   63  A    between atoms: _159  and  _160
REMARK   64  A    between atoms: _160  and  _161
REMARK   65  A    between atoms: _167  and  _170
REMARK   66  A    between atoms: _170  and  _171
REMARK   67  A    between atoms: _183  and  _186
REMARK   68  A    between atoms: _186  and  _187
REMARK   69  A    between atoms: _187  and  _188
REMARK   70  A    between atoms: _195  and  _198
REMARK   71  A    between atoms: _198  and  _199
REMARK   72  A    between atoms: _204  and  _207
REMARK   73  A    between atoms: _207  and  _208
REMARK   74  A    between atoms: _215  and  _216
REMARK   75  A    between atoms: _220  and  _222
REMARK   76  A    between atoms: _222  and  _223
REMARK   77  A    between atoms: _222  and  _225
REMARK   78  A    between atoms: _225  and  _226
REMARK   79  A    between atoms: _231  and  _232
REMARK   80  A    between atoms: _234  and  _236
REMARK   81  A    between atoms: _236  and  _237
REMARK   82  A    between atoms: _236  and  _239
REMARK   83  A    between atoms: _242  and  _244
REMARK   84  A    between atoms: _244  and  _245
REMARK   85  A    between atoms: _248  and  _250
REMARK   86  A    between atoms: _250  and  _251
REMARK   87  A    between atoms: _250  and  _253
REMARK   88  A    between atoms: _255  and  _257
REMARK   89  A    between atoms: _257  and  _258
REMARK   90  A    between atoms: _257  and  _260
REMARK   91  A    between atoms: _260  and  _261
REMARK   92  A    between atoms: _261  and  _262
REMARK   93  A    between atoms: _266  and  _267
REMARK   94  A    between atoms: _272  and  _274
REMARK   95  A    between atoms: _274  and  _275
REMARK   96  A    between atoms: _274  and  _277
REMARK   97  A    between atoms: _280  and  _282
REMARK   98  A    between atoms: _282  and  _283
REMARK   99  A    between atoms: _282  and  _285
REMARK  100  A    between atoms: _285  and  _286
REMARK  101  A    between atoms: _291  and  _293
REMARK  102  A    between atoms: _293  and  _294
REMARK  103  A    between atoms: _293  and  _296
REMARK  104  A    between atoms: _296  and  _297
REMARK  105  A    between atoms: _303  and  _305
REMARK  106  A    between atoms: _305  and  _306
REMARK  107  A    between atoms: _305  and  _308
REMARK  108  A    between atoms: _308  and  _309
REMARK  109  A    between atoms: _312  and  _314
REMARK  110  A    between atoms: _314  and  _315
REMARK                            x       y       z     vdW  Elec       q    Type
REMARK                         _______ _______ _______ _____ _____    ______ ____
ROOT
ATOM      1  O   HOH     1      35.970  12.119  22.079  0.00  0.00    +0.000 OA
ENDROOT
TORSDOF 0
REMARK  Name = ../refined-set-2016/1o0f/1o0f_pocket.pdb
REMARK  110 active torsions:
REMARK  status: ('A' for Active; 'I' for Inactive)
REMARK    1  A    between atoms: _1  and  _3
REMARK    2  A    between atoms: _3  and  _4
REMARK    3  A    between atoms: _7  and  _9
REMARK    4  A    between atoms: _9  and  _10
REMARK    5  A    between atoms: _9  and  _12
REMARK    6  A    between atoms: _12  and  _13
REMARK    7  A    between atoms: _13  and  _14
REMARK    8  A    between atoms: _14  and  _15
REMARK    9  A    between atoms: _15  and  _16
REMARK   10  A    between atoms: _20  and  _22
REMARK   11  A    between atoms: _22  and  _23
REMARK   12  A    between atoms: _22  and  _25
REMARK   13  A    between atoms: _25  and  _26
REMARK   14  A    between atoms: _32  and  _34
REMARK   15  A    between atoms: _34  and  _35
REMARK   16  A    between atoms: _34  and  _37
REMARK   17  A    between atoms: _37  and  _38
REMARK   18  A    between atoms: _38  and  _39
REMARK   19  A    between atoms: _39  and  _40
REMARK   20  A    between atoms: _49  and  _51
REMARK   21  A    between atoms: _51  and  _52
REMARK   22  A    between atoms: _51  and  _54
REMARK   23  A    between atoms: _54  and  _55
REMARK   24  A    between atoms: _55  and  _56
REMARK   25  A    between atoms: _61  and  _63
REMARK   26  A    between atoms: _63  and  _64
REMARK   27  A    between atoms: _63  and  _66
REMARK   28  A    between atoms: _66  and  _67
REMARK   29  A    between atoms: _72  and  _74
REMARK   30  A    between atoms: _74  and  _75
REMARK   31  A    between atoms: _74  and  _77
REMARK   32  A    between atoms: _77  and  _78
REMARK   33  A    between atoms: _81  and  _83
REMARK   34  A    between atoms: _83  and  _84
REMARK   35  A    between atoms: _83  and  _86
REMARK   36  A    between atoms: _86  and  _87
REMARK   37  A    between atoms: _87  and  _88
REMARK   38  A    between atoms: _88  and  _89
REMARK   39  A    between atoms: _98  and  _100
REMARK   40  A    between atoms: _100  and  _101
REMARK   41  A    between atoms: _100  and  _103
REMARK   42  A    between atoms: _103  and  _104
REMARK   43  A    between atoms: _104  and  _105
REMARK   44  A    between atoms: _105  and  _106
REMARK   45  A    between atoms: _106  and  _107
REMARK   46  A    between atoms: _111  and  _113
REMARK   47  A    between atoms: _113  and  _114
REMARK   48  A    between atoms: _113  and  _116
REMARK   49  A    between atoms: _119  and  _121
REMARK   50  A    between atoms: _121  and  _122
REMARK   51  A    between atoms: _121  and  _124
REMARK   52  A    between atoms: _124  and  _125
REMARK   53  A    between atoms: _130  and  _132
REMARK   54  A    between atoms: _132  and  _133
REMARK   55  A    between atoms: _132  and  _135
REMARK   56  A    between atoms: _135  and  _136
REMARK   57  A    between atoms: _139  and  _141
REMARK   58  A    between atoms: _141  and  _142
REMARK   59  A    between atoms: _145  and  _147
REMARK   60  A    between atoms: _154  and  _157
REMARK   61  A    between atoms: _157  and  _158
REMARK   62  A    between atoms: _158  and  _159
REMARK   63  A    between atoms: _159  and  _160
REMARK   64  A    between atoms: _160  and  _161
REMARK   65  A    between atoms: _167  and  _170
REMARK   66  A    between atoms: _170  and  _171
REMARK   67  A    between atoms: _183  and  _186
REMARK   68  A    between atoms: _186  and  _187
REMARK   69  A    between atoms: _187  and  _188
REMARK   70  A    between atoms: _195  and  _198
REMARK   71  A    between atoms: _198  and  _199
REMARK   72  A    between atoms: _204  and  _207
REMARK   73  A    between atoms: _207  and  _208
REMARK   74  A    between atoms: _215  and  _216
REMARK   75  A    between atoms: _220  and  _222
REMARK   76  A    between atoms: _222  and  _223
REMARK   77  A    between atoms: _222  and  _225
REMARK   78  A    between atoms: _225  and  _226
REMARK   79  A    between atoms: _231  and  _232
REMARK   80  A    between atoms: _234  and  _236
REMARK   81  A    between atoms: _236  and  _237
REMARK   82  A    between atoms: _236  and  _239
REMARK   83  A    between atoms: _242  and  _244
REMARK   84  A    between atoms: _244  and  _245
REMARK   85  A    between atoms: _248  and  _250
REMARK   86  A    between atoms: _250  and  _251
REMARK   87  A    between atoms: _250  and  _253
REMARK   88  A    between atoms: _255  and  _257
REMARK   89  A    between atoms: _257  and  _258
REMARK   90  A    between atoms: _257  and  _260
REMARK   91  A    between atoms: _260  and  _261
REMARK   92  A    between atoms: _261  and  _262
REMARK   93  A    between atoms: _266  and  _267
REMARK   94  A    between atoms: _272  and  _274
REMARK   95  A    between atoms: _274  and  _275
REMARK   96  A    between atoms: _274  and  _277
REMARK   97  A    between atoms: _280  and  _282
REMARK   98  A    between atoms: _282  and  _283
REMARK   99  A    between atoms: _282  and  _285
REMARK  100  A    between atoms: _285  and  _286
REMARK  101  A    between atoms: _291  and  _293
REMARK  102  A    between atoms: _293  and  _294
REMARK  103  A    between atoms: _293  and  _296
REMARK  104  A    between atoms: _296  and  _297
REMARK  105  A    between atoms: _303  and  _305
REMARK  106  A    between atoms: _305  and  _306
REMARK  107  A    between atoms: _305  and  _308
REMARK  108  A    between atoms: _308  and  _309
REMARK  109  A    between atoms: _312  and  _314
REMARK  110  A    between atoms: _314  and  _315
REMARK                            x       y       z     vdW  Elec       q    Type
REMARK                         _______ _______ _______ _____ _____    ______ ____
ROOT
ATOM      1  O   HOH     1      37.216  12.986  13.760  0.00  0.00    +0.000 OA
ENDROOT
TORSDOF 0
REMARK  Name = ../refined-set-2016/1o0f/1o0f_pocket.pdb
REMARK  110 active torsions:
REMARK  status: ('A' for Active; 'I' for Inactive)
REMARK    1  A    between atoms: _1  and  _3
REMARK    2  A    between atoms: _3  and  _4
REMARK    3  A    between atoms: _7  and  _9
REMARK    4  A    between atoms: _9  and  _10
REMARK    5  A    between atoms: _9  and  _12
REMARK    6  A    between atoms: _12  and  _13
REMARK    7  A    between atoms: _13  and  _14
REMARK    8  A    between atoms: _14  and  _15
REMARK    9  A    between atoms: _15  and  _16
REMARK   10  A    between atoms: _20  and  _22
REMARK   11  A    between atoms: _22  and  _23
REMARK   12  A    between atoms: _22  and  _25
REMARK   13  A    between atoms: _25  and  _26
REMARK   14  A    between atoms: _32  and  _34
REMARK   15  A    between atoms: _34  and  _35
REMARK   16  A    between atoms: _34  and  _37
REMARK   17  A    between atoms: _37  and  _38
REMARK   18  A    between atoms: _38  and  _39
REMARK   19  A    between atoms: _39  and  _40
REMARK   20  A    between atoms: _49  and  _51
REMARK   21  A    between atoms: _51  and  _52
REMARK   22  A    between atoms: _51  and  _54
REMARK   23  A    between atoms: _54  and  _55
REMARK   24  A    between atoms: _55  and  _56
REMARK   25  A    between atoms: _61  and  _63
REMARK   26  A    between atoms: _63  and  _64
REMARK   27  A    between atoms: _63  and  _66
REMARK   28  A    between atoms: _66  and  _67
REMARK   29  A    between atoms: _72  and  _74
REMARK   30  A    between atoms: _74  and  _75
REMARK   31  A    between atoms: _74  and  _77
REMARK   32  A    between atoms: _77  and  _78
REMARK   33  A    between atoms: _81  and  _83
REMARK   34  A    between atoms: _83  and  _84
REMARK   35  A    between atoms: _83  and  _86
REMARK   36  A    between atoms: _86  and  _87
REMARK   37  A    between atoms: _87  and  _88
REMARK   38  A    between atoms: _88  and  _89
REMARK   39  A    between atoms: _98  and  _100
REMARK   40  A    between atoms: _100  and  _101
REMARK   41  A    between atoms: _100  and  _103
REMARK   42  A    between atoms: _103  and  _104
REMARK   43  A    between atoms: _104  and  _105
REMARK   44  A    between atoms: _105  and  _106
REMARK   45  A    between atoms: _106  and  _107
REMARK   46  A    between atoms: _111  and  _113
REMARK   47  A    between atoms: _113  and  _114
REMARK   48  A    between atoms: _113  and  _116
REMARK   49  A    between atoms: _119  and  _121
REMARK   50  A    between atoms: _121  and  _122
REMARK   51  A    between atoms: _121  and  _124
REMARK   52  A    between atoms: _124  and  _125
REMARK   53  A    between atoms: _130  and  _132
REMARK   54  A    between atoms: _132  and  _133
REMARK   55  A    between atoms: _132  and  _135
REMARK   56  A    between atoms: _135  and  _136
REMARK   57  A    between atoms: _139  and  _141
REMARK   58  A    between atoms: _141  and  _142
REMARK   59  A    between atoms: _145  and  _147
REMARK   60  A    between atoms: _154  and  _157
REMARK   61  A    between atoms: _157  and  _158
REMARK   62  A    between atoms: _158  and  _159
REMARK   63  A    between atoms: _159  and  _160
REMARK   64  A    between atoms: _160  and  _161
REMARK   65  A    between atoms: _167  and  _170
REMARK   66  A    between atoms: _170  and  _171
REMARK   67  A    between atoms: _183  and  _186
REMARK   68  A    between atoms: _186  and  _187
REMARK   69  A    between atoms: _187  and  _188
REMARK   70  A    between atoms: _195  and  _198
REMARK   71  A    between atoms: _198  and  _199
REMARK   72  A    between atoms: _204  and  _207
REMARK   73  A    between atoms: _207  and  _208
REMARK   74  A    between atoms: _215  and  _216
REMARK   75  A    between atoms: _220  and  _222
REMARK   76  A    between atoms: _222  and  _223
REMARK   77  A    between atoms: _222  and  _225
REMARK   78  A    between atoms: _225  and  _226
REMARK   79  A    between atoms: _231  and  _232
REMARK   80  A    between atoms: _234  and  _236
REMARK   81  A    between atoms: _236  and  _237
REMARK   82  A    between atoms: _236  and  _239
REMARK   83  A    between atoms: _242  and  _244
REMARK   84  A    between atoms: _244  and  _245
REMARK   85  A    between atoms: _248  and  _250
REMARK   86  A    between atoms: _250  and  _251
REMARK   87  A    between atoms: _250  and  _253
REMARK   88  A    between atoms: _255  and  _257
REMARK   89  A    between atoms: _257  and  _258
REMARK   90  A    between atoms: _257  and  _260
REMARK   91  A    between atoms: _260  and  _261
REMARK   92  A    between atoms: _261  and  _262
REMARK   93  A    between atoms: _266  and  _267
REMARK   94  A    between atoms: _272  and  _274
REMARK   95  A    between atoms: _274  and  _275
REMARK   96  A    between atoms: _274  and  _277
REMARK   97  A    between atoms: _280  and  _282
REMARK   98  A    between atoms: _282  and  _283
REMARK   99  A    between atoms: _282  and  _285
REMARK  100  A    between atoms: _285  and  _286
REMARK  101  A    between atoms: _291  and  _293
REMARK  102  A    between atoms: _293  and  _294
REMARK  103  A    between atoms: _293  and  _296
REMARK  104  A    between atoms: _296  and  _297
REMARK  105  A    between atoms: _303  and  _305
REMARK  106  A    between atoms: _305  and  _306
REMARK  107  A    between atoms: _305  and  _308
REMARK  108  A    between atoms: _308  and  _309
REMARK  109  A    between atoms: _312  and  _314
REMARK  110  A    between atoms: _314  and  _315
REMARK                            x       y       z     vdW  Elec       q    Type
REMARK                         _______ _______ _______ _____ _____    ______ ____
ROOT
ATOM      1  O   HOH     1      37.559  13.461  10.599  0.00  0.00    +0.000 OA
ENDROOT
TORSDOF 0
REMARK  Name = ../refined-set-2016/1o0f/1o0f_pocket.pdb
REMARK  110 active torsions:
REMARK  status: ('A' for Active; 'I' for Inactive)
REMARK    1  A    between atoms: _1  and  _3
REMARK    2  A    between atoms: _3  and  _4
REMARK    3  A    between atoms: _7  and  _9
REMARK    4  A    between atoms: _9  and  _10
REMARK    5  A    between atoms: _9  and  _12
REMARK    6  A    between atoms: _12  and  _13
REMARK    7  A    between atoms: _13  and  _14
REMARK    8  A    between atoms: _14  and  _15
REMARK    9  A    between atoms: _15  and  _16
REMARK   10  A    between atoms: _20  and  _22
REMARK   11  A    between atoms: _22  and  _23
REMARK   12  A    between atoms: _22  and  _25
REMARK   13  A    between atoms: _25  and  _26
REMARK   14  A    between atoms: _32  and  _34
REMARK   15  A    between atoms: _34  and  _35
REMARK   16  A    between atoms: _34  and  _37
REMARK   17  A    between atoms: _37  and  _38
REMARK   18  A    between atoms: _38  and  _39
REMARK   19  A    between atoms: _39  and  _40
REMARK   20  A    between atoms: _49  and  _51
REMARK   21  A    between atoms: _51  and  _52
REMARK   22  A    between atoms: _51  and  _54
REMARK   23  A    between atoms: _54  and  _55
REMARK   24  A    between atoms: _55  and  _56
REMARK   25  A    between atoms: _61  and  _63
REMARK   26  A    between atoms: _63  and  _64
REMARK   27  A    between atoms: _63  and  _66
REMARK   28  A    between atoms: _66  and  _67
REMARK   29  A    between atoms: _72  and  _74
REMARK   30  A    between atoms: _74  and  _75
REMARK   31  A    between atoms: _74  and  _77
REMARK   32  A    between atoms: _77  and  _78
REMARK   33  A    between atoms: _81  and  _83
REMARK   34  A    between atoms: _83  and  _84
REMARK   35  A    between atoms: _83  and  _86
REMARK   36  A    between atoms: _86  and  _87
REMARK   37  A    between atoms: _87  and  _88
REMARK   38  A    between atoms: _88  and  _89
REMARK   39  A    between atoms: _98  and  _100
REMARK   40  A    between atoms: _100  and  _101
REMARK   41  A    between atoms: _100  and  _103
REMARK   42  A    between atoms: _103  and  _104
REMARK   43  A    between atoms: _104  and  _105
REMARK   44  A    between atoms: _105  and  _106
REMARK   45  A    between atoms: _106  and  _107
REMARK   46  A    between atoms: _111  and  _113
REMARK   47  A    between atoms: _113  and  _114
REMARK   48  A    between atoms: _113  and  _116
REMARK   49  A    between atoms: _119  and  _121
REMARK   50  A    between atoms: _121  and  _122
REMARK   51  A    between atoms: _121  and  _124
REMARK   52  A    between atoms: _124  and  _125
REMARK   53  A    between atoms: _130  and  _132
REMARK   54  A    between atoms: _132  and  _133
REMARK   55  A    between atoms: _132  and  _135
REMARK   56  A    between atoms: _135  and  _136
REMARK   57  A    between atoms: _139  and  _141
REMARK   58  A    between atoms: _141  and  _142
REMARK   59  A    between atoms: _145  and  _147
REMARK   60  A    between atoms: _154  and  _157
REMARK   61  A    between atoms: _157  and  _158
REMARK   62  A    between atoms: _158  and  _159
REMARK   63  A    between atoms: _159  and  _160
REMARK   64  A    between atoms: _160  and  _161
REMARK   65  A    between atoms: _167  and  _170
REMARK   66  A    between atoms: _170  and  _171
REMARK   67  A    between atoms: _183  and  _186
REMARK   68  A    between atoms: _186  and  _187
REMARK   69  A    between atoms: _187  and  _188
REMARK   70  A    between atoms: _195  and  _198
REMARK   71  A    between atoms: _198  and  _199
REMARK   72  A    between atoms: _204  and  _207
REMARK   73  A    between atoms: _207  and  _208
REMARK   74  A    between atoms: _215  and  _216
REMARK   75  A    between atoms: _220  and  _222
REMARK   76  A    between atoms: _222  and  _223
REMARK   77  A    between atoms: _222  and  _225
REMARK   78  A    between atoms: _225  and  _226
REMARK   79  A    between atoms: _231  and  _232
REMARK   80  A    between atoms: _234  and  _236
REMARK   81  A    between atoms: _236  and  _237
REMARK   82  A    between atoms: _236  and  _239
REMARK   83  A    between atoms: _242  and  _244
REMARK   84  A    between atoms: _244  and  _245
REMARK   85  A    between atoms: _248  and  _250
REMARK   86  A    between atoms: _250  and  _251
REMARK   87  A    between atoms: _250  and  _253
REMARK   88  A    between atoms: _255  and  _257
REMARK   89  A    between atoms: _257  and  _258
REMARK   90  A    between atoms: _257  and  _260
REMARK   91  A    between atoms: _260  and  _261
REMARK   92  A    between atoms: _261  and  _262
REMARK   93  A    between atoms: _266  and  _267
REMARK   94  A    between atoms: _272  and  _274
REMARK   95  A    between atoms: _274  and  _275
REMARK   96  A    between atoms: _274  and  _277
REMARK   97  A    between atoms: _280  and  _282
REMARK   98  A    between atoms: _282  and  _283
REMARK   99  A    between atoms: _282  and  _285
REMARK  100  A    between atoms: _285  and  _286
REMARK  101  A    between atoms: _291  and  _293
REMARK  102  A    between atoms: _293  and  _294
REMARK  103  A    between atoms: _293  and  _296
REMARK  104  A    between atoms: _296  and  _297
REMARK  105  A    between atoms: _303  and  _305
REMARK  106  A    between atoms: _305  and  _306
REMARK  107  A    between atoms: _305  and  _308
REMARK  108  A    between atoms: _308  and  _309
REMARK  109  A    between atoms: _312  and  _314
REMARK  110  A    between atoms: _314  and  _315
REMARK                            x       y       z     vdW  Elec       q    Type
REMARK                         _______ _______ _______ _____ _____    ______ ____
ROOT
ATOM      1  O   HOH     1      38.976   8.738  13.754  0.00  0.00    +0.000 OA
ENDROOT
TORSDOF 0
REMARK  Name = ../refined-set-2016/1o0f/1o0f_pocket.pdb
REMARK  110 active torsions:
REMARK  status: ('A' for Active; 'I' for Inactive)
REMARK    1  A    between atoms: _1  and  _3
REMARK    2  A    between atoms: _3  and  _4
REMARK    3  A    between atoms: _7  and  _9
REMARK    4  A    between atoms: _9  and  _10
REMARK    5  A    between atoms: _9  and  _12
REMARK    6  A    between atoms: _12  and  _13
REMARK    7  A    between atoms: _13  and  _14
REMARK    8  A    between atoms: _14  and  _15
REMARK    9  A    between atoms: _15  and  _16
REMARK   10  A    between atoms: _20  and  _22
REMARK   11  A    between atoms: _22  and  _23
REMARK   12  A    between atoms: _22  and  _25
REMARK   13  A    between atoms: _25  and  _26
REMARK   14  A    between atoms: _32  and  _34
REMARK   15  A    between atoms: _34  and  _35
REMARK   16  A    between atoms: _34  and  _37
REMARK   17  A    between atoms: _37  and  _38
REMARK   18  A    between atoms: _38  and  _39
REMARK   19  A    between atoms: _39  and  _40
REMARK   20  A    between atoms: _49  and  _51
REMARK   21  A    between atoms: _51  and  _52
REMARK   22  A    between atoms: _51  and  _54
REMARK   23  A    between atoms: _54  and  _55
REMARK   24  A    between atoms: _55  and  _56
REMARK   25  A    between atoms: _61  and  _63
REMARK   26  A    between atoms: _63  and  _64
REMARK   27  A    between atoms: _63  and  _66
REMARK   28  A    between atoms: _66  and  _67
REMARK   29  A    between atoms: _72  and  _74
REMARK   30  A    between atoms: _74  and  _75
REMARK   31  A    between atoms: _74  and  _77
REMARK   32  A    between atoms: _77  and  _78
REMARK   33  A    between atoms: _81  and  _83
REMARK   34  A    between atoms: _83  and  _84
REMARK   35  A    between atoms: _83  and  _86
REMARK   36  A    between atoms: _86  and  _87
REMARK   37  A    between atoms: _87  and  _88
REMARK   38  A    between atoms: _88  and  _89
REMARK   39  A    between atoms: _98  and  _100
REMARK   40  A    between atoms: _100  and  _101
REMARK   41  A    between atoms: _100  and  _103
REMARK   42  A    between atoms: _103  and  _104
REMARK   43  A    between atoms: _104  and  _105
REMARK   44  A    between atoms: _105  and  _106
REMARK   45  A    between atoms: _106  and  _107
REMARK   46  A    between atoms: _111  and  _113
REMARK   47  A    between atoms: _113  and  _114
REMARK   48  A    between atoms: _113  and  _116
REMARK   49  A    between atoms: _119  and  _121
REMARK   50  A    between atoms: _121  and  _122
REMARK   51  A    between atoms: _121  and  _124
REMARK   52  A    between atoms: _124  and  _125
REMARK   53  A    between atoms: _130  and  _132
REMARK   54  A    between atoms: _132  and  _133
REMARK   55  A    between atoms: _132  and  _135
REMARK   56  A    between atoms: _135  and  _136
REMARK   57  A    between atoms: _139  and  _141
REMARK   58  A    between atoms: _141  and  _142
REMARK   59  A    between atoms: _145  and  _147
REMARK   60  A    between atoms: _154  and  _157
REMARK   61  A    between atoms: _157  and  _158
REMARK   62  A    between atoms: _158  and  _159
REMARK   63  A    between atoms: _159  and  _160
REMARK   64  A    between atoms: _160  and  _161
REMARK   65  A    between atoms: _167  and  _170
REMARK   66  A    between atoms: _170  and  _171
REMARK   67  A    between atoms: _183  and  _186
REMARK   68  A    between atoms: _186  and  _187
REMARK   69  A    between atoms: _187  and  _188
REMARK   70  A    between atoms: _195  and  _198
REMARK   71  A    between atoms: _198  and  _199
REMARK   72  A    between atoms: _204  and  _207
REMARK   73  A    between atoms: _207  and  _208
REMARK   74  A    between atoms: _215  and  _216
REMARK   75  A    between atoms: _220  and  _222
REMARK   76  A    between atoms: _222  and  _223
REMARK   77  A    between atoms: _222  and  _225
REMARK   78  A    between atoms: _225  and  _226
REMARK   79  A    between atoms: _231  and  _232
REMARK   80  A    between atoms: _234  and  _236
REMARK   81  A    between atoms: _236  and  _237
REMARK   82  A    between atoms: _236  and  _239
REMARK   83  A    between atoms: _242  and  _244
REMARK   84  A    between atoms: _244  and  _245
REMARK   85  A    between atoms: _248  and  _250
REMARK   86  A    between atoms: _250  and  _251
REMARK   87  A    between atoms: _250  and  _253
REMARK   88  A    between atoms: _255  and  _257
REMARK   89  A    between atoms: _257  and  _258
REMARK   90  A    between atoms: _257  and  _260
REMARK   91  A    between atoms: _260  and  _261
REMARK   92  A    between atoms: _261  and  _262
REMARK   93  A    between atoms: _266  and  _267
REMARK   94  A    between atoms: _272  and  _274
REMARK   95  A    between atoms: _274  and  _275
REMARK   96  A    between atoms: _274  and  _277
REMARK   97  A    between atoms: _280  and  _282
REMARK   98  A    between atoms: _282  and  _283
REMARK   99  A    between atoms: _282  and  _285
REMARK  100  A    between atoms: _285  and  _286
REMARK  101  A    between atoms: _291  and  _293
REMARK  102  A    between atoms: _293  and  _294
REMARK  103  A    between atoms: _293  and  _296
REMARK  104  A    between atoms: _296  and  _297
REMARK  105  A    between atoms: _303  and  _305
REMARK  106  A    between atoms: _305  and  _306
REMARK  107  A    between atoms: _305  and  _308
REMARK  108  A    between atoms: _308  and  _309
REMARK  109  A    between atoms: _312  and  _314
REMARK  110  A    between atoms: _314  and  _315
REMARK                            x       y       z     vdW  Elec       q    Type
REMARK                         _______ _______ _______ _____ _____    ______ ____
ROOT
ATOM      1  O   HOH     1      38.580   8.598   6.952  0.00  0.00    +0.000 OA
ENDROOT
TORSDOF 0
