REMARK  Name = ../refined-set-2016/3vw1/3vw1_pocket.pdb
REMARK  263 active torsions:
REMARK  status: ('A' for Active; 'I' for Inactive)
REMARK    1  A    between atoms: _1  and  _3
REMARK    2  A    between atoms: _3  and  _4
REMARK    3  A    between atoms: _3  and  _6
REMARK    4  A    between atoms: _6  and  _7
REMARK    5  A    between atoms: _12  and  _13
REMARK    6  A    between atoms: _15  and  _17
REMARK    7  A    between atoms: _17  and  _18
REMARK    8  A    between atoms: _17  and  _20
REMARK    9  A    between atoms: _20  and  _21
REMARK   10  A    between atoms: _24  and  _26
REMARK   11  A    between atoms: _26  and  _27
REMARK   12  A    between atoms: _26  and  _29
REMARK   13  A    between atoms: _29  and  _30
REMARK   14  A    between atoms: _30  and  _31
REMARK   15  A    between atoms: _31  and  _32
REMARK   16  A    between atoms: _32  and  _33
REMARK   17  A    between atoms: _37  and  _39
REMARK   18  A    between atoms: _39  and  _40
REMARK   19  A    between atoms: _39  and  _42
REMARK   20  A    between atoms: _42  and  _43
REMARK   21  A    between atoms: _43  and  _44
REMARK   22  A    between atoms: _49  and  _51
REMARK   23  A    between atoms: _51  and  _52
REMARK   24  A    between atoms: _51  and  _54
REMARK   25  A    between atoms: _54  and  _55
REMARK   26  A    between atoms: _58  and  _60
REMARK   27  A    between atoms: _60  and  _61
REMARK   28  A    between atoms: _60  and  _63
REMARK   29  A    between atoms: _63  and  _64
REMARK   30  A    between atoms: _67  and  _69
REMARK   31  A    between atoms: _69  and  _70
REMARK   32  A    between atoms: _69  and  _72
REMARK   33  A    between atoms: _74  and  _76
REMARK   34  A    between atoms: _76  and  _77
REMARK   35  A    between atoms: _76  and  _79
REMARK   36  A    between atoms: _79  and  _80
REMARK   37  A    between atoms: _80  and  _81
REMARK   38  A    between atoms: _86  and  _88
REMARK   39  A    between atoms: _88  and  _89
REMARK   40  A    between atoms: _88  and  _91
REMARK   41  A    between atoms: _91  and  _92
REMARK   42  A    between atoms: _94  and  _96
REMARK   43  A    between atoms: _96  and  _97
REMARK   44  A    between atoms: _96  and  _99
REMARK   45  A    between atoms: _99  and  _100
REMARK   46  A    between atoms: _100  and  _101
REMARK   47  A    between atoms: _103  and  _105
REMARK   48  A    between atoms: _105  and  _106
REMARK   49  A    between atoms: _105  and  _108
REMARK   50  A    between atoms: _108  and  _109
REMARK   51  A    between atoms: _112  and  _114
REMARK   52  A    between atoms: _114  and  _115
REMARK   53  A    between atoms: _114  and  _117
REMARK   54  A    between atoms: _117  and  _118
REMARK   55  A    between atoms: _118  and  _119
REMARK   56  A    between atoms: _121  and  _123
REMARK   57  A    between atoms: _123  and  _124
REMARK   58  A    between atoms: _123  and  _126
REMARK   59  A    between atoms: _126  and  _127
REMARK   60  A    between atoms: _127  and  _128
REMARK   61  A    between atoms: _131  and  _133
REMARK   62  A    between atoms: _133  and  _134
REMARK   63  A    between atoms: _133  and  _136
REMARK   64  A    between atoms: _136  and  _137
REMARK   65  A    between atoms: _140  and  _142
REMARK   66  A    between atoms: _142  and  _143
REMARK   67  A    between atoms: _146  and  _148
REMARK   68  A    between atoms: _148  and  _149
REMARK   69  A    between atoms: _148  and  _151
REMARK   70  A    between atoms: _151  and  _152
REMARK   71  A    between atoms: _152  and  _153
REMARK   72  A    between atoms: _155  and  _157
REMARK   73  A    between atoms: _157  and  _158
REMARK   74  A    between atoms: _157  and  _160
REMARK   75  A    between atoms: _160  and  _161
REMARK   76  A    between atoms: _164  and  _166
REMARK   77  A    between atoms: _166  and  _167
REMARK   78  A    between atoms: _166  and  _169
REMARK   79  A    between atoms: _169  and  _170
REMARK   80  A    between atoms: _170  and  _171
REMARK   81  A    between atoms: _171  and  _172
REMARK   82  A    between atoms: _181  and  _183
REMARK   83  A    between atoms: _183  and  _184
REMARK   84  A    between atoms: _183  and  _186
REMARK   85  A    between atoms: _186  and  _187
REMARK   86  A    between atoms: _193  and  _195
REMARK   87  A    between atoms: _195  and  _196
REMARK   88  A    between atoms: _195  and  _198
REMARK   89  A    between atoms: _198  and  _199
REMARK   90  A    between atoms: _202  and  _204
REMARK   91  A    between atoms: _204  and  _205
REMARK   92  A    between atoms: _204  and  _207
REMARK   93  A    between atoms: _207  and  _208
REMARK   94  A    between atoms: _218  and  _220
REMARK   95  A    between atoms: _220  and  _221
REMARK   96  A    between atoms: _220  and  _223
REMARK   97  A    between atoms: _223  and  _224
REMARK   98  A    between atoms: _229  and  _231
REMARK   99  A    between atoms: _231  and  _232
REMARK  100  A    between atoms: _231  and  _234
REMARK  101  A    between atoms: _234  and  _235
REMARK  102  A    between atoms: _237  and  _239
REMARK  103  A    between atoms: _239  and  _240
REMARK  104  A    between atoms: _239  and  _242
REMARK  105  A    between atoms: _242  and  _243
REMARK  106  A    between atoms: _248  and  _249
REMARK  107  A    between atoms: _251  and  _253
REMARK  108  A    between atoms: _253  and  _254
REMARK  109  A    between atoms: _253  and  _256
REMARK  110  A    between atoms: _256  and  _257
REMARK  111  A    between atoms: _260  and  _262
REMARK  112  A    between atoms: _262  and  _263
REMARK  113  A    between atoms: _262  and  _265
REMARK  114  A    between atoms: _265  and  _266
REMARK  115  A    between atoms: _268  and  _270
REMARK  116  A    between atoms: _270  and  _271
REMARK  117  A    between atoms: _270  and  _273
REMARK  118  A    between atoms: _273  and  _274
REMARK  119  A    between atoms: _284  and  _286
REMARK  120  A    between atoms: _286  and  _287
REMARK  121  A    between atoms: _289  and  _291
REMARK  122  A    between atoms: _291  and  _292
REMARK  123  A    between atoms: _291  and  _294
REMARK  124  A    between atoms: _294  and  _295
REMARK  125  A    between atoms: _295  and  _296
REMARK  126  A    between atoms: _296  and  _297
REMARK  127  A    between atoms: _306  and  _308
REMARK  128  A    between atoms: _308  and  _309
REMARK  129  A    between atoms: _308  and  _311
REMARK  130  A    between atoms: _311  and  _312
REMARK  131  A    between atoms: _317  and  _319
REMARK  132  A    between atoms: _319  and  _320
REMARK  133  A    between atoms: _323  and  _325
REMARK  134  A    between atoms: _325  and  _326
REMARK  135  A    between atoms: _325  and  _328
REMARK  136  A    between atoms: _328  and  _329
REMARK  137  A    between atoms: _332  and  _334
REMARK  138  A    between atoms: _334  and  _335
REMARK  139  A    between atoms: _334  and  _337
REMARK  140  A    between atoms: _337  and  _338
REMARK  141  A    between atoms: _338  and  _339
REMARK  142  A    between atoms: _339  and  _340
REMARK  143  A    between atoms: _349  and  _351
REMARK  144  A    between atoms: _351  and  _352
REMARK  145  A    between atoms: _351  and  _354
REMARK  146  A    between atoms: _354  and  _355
REMARK  147  A    between atoms: _355  and  _356
REMARK  148  A    between atoms: _361  and  _363
REMARK  149  A    between atoms: _363  and  _364
REMARK  150  A    between atoms: _363  and  _366
REMARK  151  A    between atoms: _366  and  _367
REMARK  152  A    between atoms: _370  and  _372
REMARK  153  A    between atoms: _372  and  _373
REMARK  154  A    between atoms: _376  and  _378
REMARK  155  A    between atoms: _378  and  _379
REMARK  156  A    between atoms: _378  and  _381
REMARK  157  A    between atoms: _384  and  _386
REMARK  158  A    between atoms: _386  and  _387
REMARK  159  A    between atoms: _386  and  _389
REMARK  160  A    between atoms: _389  and  _390
REMARK  161  A    between atoms: _393  and  _395
REMARK  162  A    between atoms: _395  and  _396
REMARK  163  A    between atoms: _399  and  _401
REMARK  164  A    between atoms: _401  and  _402
REMARK  165  A    between atoms: _401  and  _404
REMARK  166  A    between atoms: _404  and  _405
REMARK  167  A    between atoms: _408  and  _410
REMARK  168  A    between atoms: _410  and  _411
REMARK  169  A    between atoms: _410  and  _413
REMARK  170  A    between atoms: _413  and  _414
REMARK  171  A    between atoms: _414  and  _415
REMARK  172  A    between atoms: _417  and  _419
REMARK  173  A    between atoms: _419  and  _420
REMARK  174  A    between atoms: _419  and  _422
REMARK  175  A    between atoms: _422  and  _423
REMARK  176  A    between atoms: _429  and  _431
REMARK  177  A    between atoms: _431  and  _432
REMARK  178  A    between atoms: _431  and  _434
REMARK  179  A    between atoms: _434  and  _435
REMARK  180  A    between atoms: _438  and  _440
REMARK  181  A    between atoms: _440  and  _441
REMARK  182  A    between atoms: _440  and  _443
REMARK  183  A    between atoms: _443  and  _444
REMARK  184  A    between atoms: _444  and  _445
REMARK  185  A    between atoms: _445  and  _446
REMARK  186  A    between atoms: _455  and  _457
REMARK  187  A    between atoms: _457  and  _458
REMARK  188  A    between atoms: _457  and  _460
REMARK  189  A    between atoms: _460  and  _461
REMARK  190  A    between atoms: _464  and  _466
REMARK  191  A    between atoms: _466  and  _467
REMARK  192  A    between atoms: _466  and  _469
REMARK  193  A    between atoms: _471  and  _473
REMARK  194  A    between atoms: _473  and  _474
REMARK  195  A    between atoms: _473  and  _476
REMARK  196  A    between atoms: _476  and  _477
REMARK  197  A    between atoms: _479  and  _481
REMARK  198  A    between atoms: _481  and  _482
REMARK  199  A    between atoms: _481  and  _484
REMARK  200  A    between atoms: _487  and  _489
REMARK  201  A    between atoms: _489  and  _490
REMARK  202  A    between atoms: _489  and  _492
REMARK  203  A    between atoms: _492  and  _493
REMARK  204  A    between atoms: _496  and  _498
REMARK  205  A    between atoms: _498  and  _499
REMARK  206  A    between atoms: _498  and  _501
REMARK  207  A    between atoms: _501  and  _502
REMARK  208  A    between atoms: _508  and  _510
REMARK  209  A    between atoms: _510  and  _511
REMARK  210  A    between atoms: _510  and  _513
REMARK  211  A    between atoms: _513  and  _514
REMARK  212  A    between atoms: _514  and  _515
REMARK  213  A    between atoms: _517  and  _519
REMARK  214  A    between atoms: _519  and  _520
REMARK  215  A    between atoms: _519  and  _522
REMARK  216  A    between atoms: _522  and  _523
REMARK  217  A    between atoms: _523  and  _524
REMARK  218  A    between atoms: _524  and  _525
REMARK  219  A    between atoms: _534  and  _536
REMARK  220  A    between atoms: _536  and  _537
REMARK  221  A    between atoms: _540  and  _542
REMARK  222  A    between atoms: _542  and  _543
REMARK  223  A    between atoms: _545  and  _547
REMARK  224  A    between atoms: _547  and  _548
REMARK  225  A    between atoms: _547  and  _550
REMARK  226  A    between atoms: _550  and  _551
REMARK  227  A    between atoms: _554  and  _556
REMARK  228  A    between atoms: _556  and  _557
REMARK  229  A    between atoms: _559  and  _561
REMARK  230  A    between atoms: _561  and  _562
REMARK  231  A    between atoms: _561  and  _564
REMARK  232  A    between atoms: _564  and  _565
REMARK  233  A    between atoms: _568  and  _570
REMARK  234  A    between atoms: _570  and  _571
REMARK  235  A    between atoms: _570  and  _573
REMARK  236  A    between atoms: _573  and  _574
REMARK  237  A    between atoms: _580  and  _582
REMARK  238  A    between atoms: _582  and  _583
REMARK  239  A    between atoms: _582  and  _585
REMARK  240  A    between atoms: _585  and  _586
REMARK  241  A    between atoms: _589  and  _591
REMARK  242  A    between atoms: _591  and  _592
REMARK  243  A    between atoms: _595  and  _597
REMARK  244  A    between atoms: _597  and  _598
REMARK  245  A    between atoms: _597  and  _600
REMARK  246  A    between atoms: _600  and  _601
REMARK  247  A    between atoms: _607  and  _609
REMARK  248  A    between atoms: _609  and  _610
REMARK  249  A    between atoms: _609  and  _612
REMARK  250  A    between atoms: _612  and  _613
REMARK  251  A    between atoms: _613  and  _614
REMARK  252  A    between atoms: _616  and  _618
REMARK  253  A    between atoms: _618  and  _619
REMARK  254  A    between atoms: _618  and  _621
REMARK  255  A    between atoms: _621  and  _622
REMARK  256  A    between atoms: _632  and  _634
REMARK  257  A    between atoms: _634  and  _635
REMARK  258  A    between atoms: _634  and  _637
REMARK  259  A    between atoms: _637  and  _638
REMARK  260  A    between atoms: _641  and  _643
REMARK  261  A    between atoms: _643  and  _644
REMARK  262  A    between atoms: _643  and  _646
REMARK  263  A    between atoms: _646  and  _647
REMARK                            x       y       z     vdW  Elec       q    Type
REMARK                         _______ _______ _______ _____ _____    ______ ____
ROOT
ATOM      1  CG  TYR A   1     -11.944   6.464  -7.530  0.00  0.00    -0.020 A 
ATOM      2  CD2 TYR A   1     -12.261   5.116  -7.600  0.00  0.00    -0.001 A 
ATOM      3  CE2 TYR A   1     -11.969   4.367  -8.745  0.00  0.00    +0.036 A 
ATOM      4  CZ  TYR A   1     -11.313   4.975  -9.822  0.00  0.00    +0.134 A 
ATOM      5  CE1 TYR A   1     -10.947   6.302  -9.763  0.00  0.00    +0.036 A 
ATOM      6  CD1 TYR A   1     -11.288   7.056  -8.626  0.00  0.00    -0.001 A 
ENDROOT
BRANCH   4   7
ATOM      7  OH  TYR A   1     -11.043   4.200 -10.935  0.00  0.00    -0.506 OA
ATOM      8  HH  TYR A   1     -10.580   4.751 -11.615  0.00  0.00    +0.292 HD
ENDBRANCH   4   7
BRANCH   1   9
ATOM      9  CB  TYR A   1     -12.296   7.258  -6.331  0.00  0.00    +0.051 C 
BRANCH   9  10
ATOM     10  CA  TYR A   1     -13.676   7.919  -6.464  0.00  0.00    +0.137 C 
BRANCH  10  11
ATOM     11  N   TYR A   1     -14.016   8.721  -5.291  0.00  0.00    -0.239 NA
ATOM     12  H   TYR A   1     -13.324   8.805  -4.520  0.00  0.00    +0.142 HD
ENDBRANCH  10  11
BRANCH  10  13
ATOM     13  C   TYR A   1     -14.735   6.871  -6.789  0.00  0.00    +0.224 C 
ATOM     14  O   TYR A   1     -15.139   6.678  -7.963  0.00  0.00    -0.287 OA
ENDBRANCH  10  13
ENDBRANCH   9  10
ENDBRANCH   1   9
TORSDOF 5
REMARK  Name = ../refined-set-2016/3vw1/3vw1_pocket.pdb
REMARK  263 active torsions:
REMARK  status: ('A' for Active; 'I' for Inactive)
REMARK    1  A    between atoms: _1  and  _3
REMARK    2  A    between atoms: _3  and  _4
REMARK    3  A    between atoms: _3  and  _6
REMARK    4  A    between atoms: _6  and  _7
REMARK    5  A    between atoms: _12  and  _13
REMARK    6  A    between atoms: _15  and  _17
REMARK    7  A    between atoms: _17  and  _18
REMARK    8  A    between atoms: _17  and  _20
REMARK    9  A    between atoms: _20  and  _21
REMARK   10  A    between atoms: _24  and  _26
REMARK   11  A    between atoms: _26  and  _27
REMARK   12  A    between atoms: _26  and  _29
REMARK   13  A    between atoms: _29  and  _30
REMARK   14  A    between atoms: _30  and  _31
REMARK   15  A    between atoms: _31  and  _32
REMARK   16  A    between atoms: _32  and  _33
REMARK   17  A    between atoms: _37  and  _39
REMARK   18  A    between atoms: _39  and  _40
REMARK   19  A    between atoms: _39  and  _42
REMARK   20  A    between atoms: _42  and  _43
REMARK   21  A    between atoms: _43  and  _44
REMARK   22  A    between atoms: _49  and  _51
REMARK   23  A    between atoms: _51  and  _52
REMARK   24  A    between atoms: _51  and  _54
REMARK   25  A    between atoms: _54  and  _55
REMARK   26  A    between atoms: _58  and  _60
REMARK   27  A    between atoms: _60  and  _61
REMARK   28  A    between atoms: _60  and  _63
REMARK   29  A    between atoms: _63  and  _64
REMARK   30  A    between atoms: _67  and  _69
REMARK   31  A    between atoms: _69  and  _70
REMARK   32  A    between atoms: _69  and  _72
REMARK   33  A    between atoms: _74  and  _76
REMARK   34  A    between atoms: _76  and  _77
REMARK   35  A    between atoms: _76  and  _79
REMARK   36  A    between atoms: _79  and  _80
REMARK   37  A    between atoms: _80  and  _81
REMARK   38  A    between atoms: _86  and  _88
REMARK   39  A    between atoms: _88  and  _89
REMARK   40  A    between atoms: _88  and  _91
REMARK   41  A    between atoms: _91  and  _92
REMARK   42  A    between atoms: _94  and  _96
REMARK   43  A    between atoms: _96  and  _97
REMARK   44  A    between atoms: _96  and  _99
REMARK   45  A    between atoms: _99  and  _100
REMARK   46  A    between atoms: _100  and  _101
REMARK   47  A    between atoms: _103  and  _105
REMARK   48  A    between atoms: _105  and  _106
REMARK   49  A    between atoms: _105  and  _108
REMARK   50  A    between atoms: _108  and  _109
REMARK   51  A    between atoms: _112  and  _114
REMARK   52  A    between atoms: _114  and  _115
REMARK   53  A    between atoms: _114  and  _117
REMARK   54  A    between atoms: _117  and  _118
REMARK   55  A    between atoms: _118  and  _119
REMARK   56  A    between atoms: _121  and  _123
REMARK   57  A    between atoms: _123  and  _124
REMARK   58  A    between atoms: _123  and  _126
REMARK   59  A    between atoms: _126  and  _127
REMARK   60  A    between atoms: _127  and  _128
REMARK   61  A    between atoms: _131  and  _133
REMARK   62  A    between atoms: _133  and  _134
REMARK   63  A    between atoms: _133  and  _136
REMARK   64  A    between atoms: _136  and  _137
REMARK   65  A    between atoms: _140  and  _142
REMARK   66  A    between atoms: _142  and  _143
REMARK   67  A    between atoms: _146  and  _148
REMARK   68  A    between atoms: _148  and  _149
REMARK   69  A    between atoms: _148  and  _151
REMARK   70  A    between atoms: _151  and  _152
REMARK   71  A    between atoms: _152  and  _153
REMARK   72  A    between atoms: _155  and  _157
REMARK   73  A    between atoms: _157  and  _158
REMARK   74  A    between atoms: _157  and  _160
REMARK   75  A    between atoms: _160  and  _161
REMARK   76  A    between atoms: _164  and  _166
REMARK   77  A    between atoms: _166  and  _167
REMARK   78  A    between atoms: _166  and  _169
REMARK   79  A    between atoms: _169  and  _170
REMARK   80  A    between atoms: _170  and  _171
REMARK   81  A    between atoms: _171  and  _172
REMARK   82  A    between atoms: _181  and  _183
REMARK   83  A    between atoms: _183  and  _184
REMARK   84  A    between atoms: _183  and  _186
REMARK   85  A    between atoms: _186  and  _187
REMARK   86  A    between atoms: _193  and  _195
REMARK   87  A    between atoms: _195  and  _196
REMARK   88  A    between atoms: _195  and  _198
REMARK   89  A    between atoms: _198  and  _199
REMARK   90  A    between atoms: _202  and  _204
REMARK   91  A    between atoms: _204  and  _205
REMARK   92  A    between atoms: _204  and  _207
REMARK   93  A    between atoms: _207  and  _208
REMARK   94  A    between atoms: _218  and  _220
REMARK   95  A    between atoms: _220  and  _221
REMARK   96  A    between atoms: _220  and  _223
REMARK   97  A    between atoms: _223  and  _224
REMARK   98  A    between atoms: _229  and  _231
REMARK   99  A    between atoms: _231  and  _232
REMARK  100  A    between atoms: _231  and  _234
REMARK  101  A    between atoms: _234  and  _235
REMARK  102  A    between atoms: _237  and  _239
REMARK  103  A    between atoms: _239  and  _240
REMARK  104  A    between atoms: _239  and  _242
REMARK  105  A    between atoms: _242  and  _243
REMARK  106  A    between atoms: _248  and  _249
REMARK  107  A    between atoms: _251  and  _253
REMARK  108  A    between atoms: _253  and  _254
REMARK  109  A    between atoms: _253  and  _256
REMARK  110  A    between atoms: _256  and  _257
REMARK  111  A    between atoms: _260  and  _262
REMARK  112  A    between atoms: _262  and  _263
REMARK  113  A    between atoms: _262  and  _265
REMARK  114  A    between atoms: _265  and  _266
REMARK  115  A    between atoms: _268  and  _270
REMARK  116  A    between atoms: _270  and  _271
REMARK  117  A    between atoms: _270  and  _273
REMARK  118  A    between atoms: _273  and  _274
REMARK  119  A    between atoms: _284  and  _286
REMARK  120  A    between atoms: _286  and  _287
REMARK  121  A    between atoms: _289  and  _291
REMARK  122  A    between atoms: _291  and  _292
REMARK  123  A    between atoms: _291  and  _294
REMARK  124  A    between atoms: _294  and  _295
REMARK  125  A    between atoms: _295  and  _296
REMARK  126  A    between atoms: _296  and  _297
REMARK  127  A    between atoms: _306  and  _308
REMARK  128  A    between atoms: _308  and  _309
REMARK  129  A    between atoms: _308  and  _311
REMARK  130  A    between atoms: _311  and  _312
REMARK  131  A    between atoms: _317  and  _319
REMARK  132  A    between atoms: _319  and  _320
REMARK  133  A    between atoms: _323  and  _325
REMARK  134  A    between atoms: _325  and  _326
REMARK  135  A    between atoms: _325  and  _328
REMARK  136  A    between atoms: _328  and  _329
REMARK  137  A    between atoms: _332  and  _334
REMARK  138  A    between atoms: _334  and  _335
REMARK  139  A    between atoms: _334  and  _337
REMARK  140  A    between atoms: _337  and  _338
REMARK  141  A    between atoms: _338  and  _339
REMARK  142  A    between atoms: _339  and  _340
REMARK  143  A    between atoms: _349  and  _351
REMARK  144  A    between atoms: _351  and  _352
REMARK  145  A    between atoms: _351  and  _354
REMARK  146  A    between atoms: _354  and  _355
REMARK  147  A    between atoms: _355  and  _356
REMARK  148  A    between atoms: _361  and  _363
REMARK  149  A    between atoms: _363  and  _364
REMARK  150  A    between atoms: _363  and  _366
REMARK  151  A    between atoms: _366  and  _367
REMARK  152  A    between atoms: _370  and  _372
REMARK  153  A    between atoms: _372  and  _373
REMARK  154  A    between atoms: _376  and  _378
REMARK  155  A    between atoms: _378  and  _379
REMARK  156  A    between atoms: _378  and  _381
REMARK  157  A    between atoms: _384  and  _386
REMARK  158  A    between atoms: _386  and  _387
REMARK  159  A    between atoms: _386  and  _389
REMARK  160  A    between atoms: _389  and  _390
REMARK  161  A    between atoms: _393  and  _395
REMARK  162  A    between atoms: _395  and  _396
REMARK  163  A    between atoms: _399  and  _401
REMARK  164  A    between atoms: _401  and  _402
REMARK  165  A    between atoms: _401  and  _404
REMARK  166  A    between atoms: _404  and  _405
REMARK  167  A    between atoms: _408  and  _410
REMARK  168  A    between atoms: _410  and  _411
REMARK  169  A    between atoms: _410  and  _413
REMARK  170  A    between atoms: _413  and  _414
REMARK  171  A    between atoms: _414  and  _415
REMARK  172  A    between atoms: _417  and  _419
REMARK  173  A    between atoms: _419  and  _420
REMARK  174  A    between atoms: _419  and  _422
REMARK  175  A    between atoms: _422  and  _423
REMARK  176  A    between atoms: _429  and  _431
REMARK  177  A    between atoms: _431  and  _432
REMARK  178  A    between atoms: _431  and  _434
REMARK  179  A    between atoms: _434  and  _435
REMARK  180  A    between atoms: _438  and  _440
REMARK  181  A    between atoms: _440  and  _441
REMARK  182  A    between atoms: _440  and  _443
REMARK  183  A    between atoms: _443  and  _444
REMARK  184  A    between atoms: _444  and  _445
REMARK  185  A    between atoms: _445  and  _446
REMARK  186  A    between atoms: _455  and  _457
REMARK  187  A    between atoms: _457  and  _458
REMARK  188  A    between atoms: _457  and  _460
REMARK  189  A    between atoms: _460  and  _461
REMARK  190  A    between atoms: _464  and  _466
REMARK  191  A    between atoms: _466  and  _467
REMARK  192  A    between atoms: _466  and  _469
REMARK  193  A    between atoms: _471  and  _473
REMARK  194  A    between atoms: _473  and  _474
REMARK  195  A    between atoms: _473  and  _476
REMARK  196  A    between atoms: _476  and  _477
REMARK  197  A    between atoms: _479  and  _481
REMARK  198  A    between atoms: _481  and  _482
REMARK  199  A    between atoms: _481  and  _484
REMARK  200  A    between atoms: _487  and  _489
REMARK  201  A    between atoms: _489  and  _490
REMARK  202  A    between atoms: _489  and  _492
REMARK  203  A    between atoms: _492  and  _493
REMARK  204  A    between atoms: _496  and  _498
REMARK  205  A    between atoms: _498  and  _499
REMARK  206  A    between atoms: _498  and  _501
REMARK  207  A    between atoms: _501  and  _502
REMARK  208  A    between atoms: _508  and  _510
REMARK  209  A    between atoms: _510  and  _511
REMARK  210  A    between atoms: _510  and  _513
REMARK  211  A    between atoms: _513  and  _514
REMARK  212  A    between atoms: _514  and  _515
REMARK  213  A    between atoms: _517  and  _519
REMARK  214  A    between atoms: _519  and  _520
REMARK  215  A    between atoms: _519  and  _522
REMARK  216  A    between atoms: _522  and  _523
REMARK  217  A    between atoms: _523  and  _524
REMARK  218  A    between atoms: _524  and  _525
REMARK  219  A    between atoms: _534  and  _536
REMARK  220  A    between atoms: _536  and  _537
REMARK  221  A    between atoms: _540  and  _542
REMARK  222  A    between atoms: _542  and  _543
REMARK  223  A    between atoms: _545  and  _547
REMARK  224  A    between atoms: _547  and  _548
REMARK  225  A    between atoms: _547  and  _550
REMARK  226  A    between atoms: _550  and  _551
REMARK  227  A    between atoms: _554  and  _556
REMARK  228  A    between atoms: _556  and  _557
REMARK  229  A    between atoms: _559  and  _561
REMARK  230  A    between atoms: _561  and  _562
REMARK  231  A    between atoms: _561  and  _564
REMARK  232  A    between atoms: _564  and  _565
REMARK  233  A    between atoms: _568  and  _570
REMARK  234  A    between atoms: _570  and  _571
REMARK  235  A    between atoms: _570  and  _573
REMARK  236  A    between atoms: _573  and  _574
REMARK  237  A    between atoms: _580  and  _582
REMARK  238  A    between atoms: _582  and  _583
REMARK  239  A    between atoms: _582  and  _585
REMARK  240  A    between atoms: _585  and  _586
REMARK  241  A    between atoms: _589  and  _591
REMARK  242  A    between atoms: _591  and  _592
REMARK  243  A    between atoms: _595  and  _597
REMARK  244  A    between atoms: _597  and  _598
REMARK  245  A    between atoms: _597  and  _600
REMARK  246  A    between atoms: _600  and  _601
REMARK  247  A    between atoms: _607  and  _609
REMARK  248  A    between atoms: _609  and  _610
REMARK  249  A    between atoms: _609  and  _612
REMARK  250  A    between atoms: _612  and  _613
REMARK  251  A    between atoms: _613  and  _614
REMARK  252  A    between atoms: _616  and  _618
REMARK  253  A    between atoms: _618  and  _619
REMARK  254  A    between atoms: _618  and  _621
REMARK  255  A    between atoms: _621  and  _622
REMARK  256  A    between atoms: _632  and  _634
REMARK  257  A    between atoms: _634  and  _635
REMARK  258  A    between atoms: _634  and  _637
REMARK  259  A    between atoms: _637  and  _638
REMARK  260  A    between atoms: _641  and  _643
REMARK  261  A    between atoms: _643  and  _644
REMARK  262  A    between atoms: _643  and  _646
REMARK  263  A    between atoms: _646  and  _647
REMARK                            x       y       z     vdW  Elec       q    Type
REMARK                         _______ _______ _______ _____ _____    ______ ____
ROOT
ATOM      1  CA  GLN A   7     -24.947   4.652 -14.120  0.00  0.00    +0.149 C 
ENDROOT
BRANCH   1   3
ATOM      2  C   CYS A   6     -22.897   3.754 -15.005  0.00  0.00    +0.242 C 
ATOM      3  N   GLN A   7     -23.503   4.502 -14.079  0.00  0.00    -0.297 N 
ATOM      4  H   GLN A   7     -22.947   4.972 -13.337  0.00  0.00    +0.150 HD
ATOM      5  O   CYS A   6     -23.511   3.240 -15.935  0.00  0.00    -0.273 OA
BRANCH   2   6
ATOM      6  CA  CYS A   6     -21.355   3.576 -14.887  0.00  0.00    +0.160 C 
BRANCH   6   8
ATOM      7  C   LEU A   5     -20.766   5.935 -15.241  0.00  0.00    +0.241 C 
ATOM      8  N   CYS A   6     -20.641   4.814 -14.505  0.00  0.00    -0.296 N 
ATOM      9  H   CYS A   6     -20.036   4.819 -13.659  0.00  0.00    +0.150 HD
ATOM     10  O   LEU A   5     -21.365   5.940 -16.297  0.00  0.00    -0.273 OA
BRANCH   7  11
ATOM     11  CA  LEU A   5     -20.102   7.226 -14.729  0.00  0.00    +0.149 C 
BRANCH  11  13
ATOM     12  C   ASP A   4     -21.815   7.763 -13.022  0.00  0.00    +0.241 C 
ATOM     13  N   LEU A   5     -20.520   7.544 -13.342  0.00  0.00    -0.297 N 
ATOM     14  H   LEU A   5     -19.798   7.600 -12.596  0.00  0.00    +0.150 HD
ATOM     15  O   ASP A   4     -22.720   7.684 -13.862  0.00  0.00    -0.273 OA
BRANCH  12  16
ATOM     16  CA  ASP A   4     -22.127   8.106 -11.554  0.00  0.00    +0.160 C 
BRANCH  16  18
ATOM     17  C   GLN A   3     -21.615   5.897 -10.797  0.00  0.00    +0.241 C 
ATOM     18  N   ASP A   4     -21.440   7.201 -10.673  0.00  0.00    -0.297 N 
ATOM     19  H   ASP A   4     -20.805   7.573  -9.938  0.00  0.00    +0.150 HD
ATOM     20  O   GLN A   3     -22.346   5.408 -11.650  0.00  0.00    -0.273 OA
BRANCH  17  21
ATOM     21  CA  GLN A   3     -20.796   4.999  -9.866  0.00  0.00    +0.149 C 
BRANCH  21  23
ATOM     22  C   LYS A   2     -18.652   5.310 -11.053  0.00  0.00    +0.241 C 
ATOM     23  N   GLN A   3     -19.367   5.361  -9.918  0.00  0.00    -0.297 N 
ATOM     24  H   GLN A   3     -18.896   5.667  -9.043  0.00  0.00    +0.150 HD
ATOM     25  O   LYS A   2     -19.088   4.830 -12.132  0.00  0.00    -0.273 OA
BRANCH  22  26
ATOM     26  CA  LYS A   2     -17.226   5.831 -10.950  0.00  0.00    +0.149 C 
BRANCH  26  28
ATOM     27  C   LEU A   1     -17.811   8.138 -10.393  0.00  0.00    +0.238 C 
ATOM     28  N   LYS A   2     -17.200   6.998 -10.065  0.00  0.00    -0.297 N 
ATOM     29  H   LYS A   2     -16.693   6.937  -9.159  0.00  0.00    +0.150 HD
ATOM     30  O   LEU A   1     -18.440   8.293 -11.433  0.00  0.00    -0.274 OA
BRANCH  27  31
ATOM     31  CA  LEU A   1     -17.704   9.271  -9.401  0.00  0.00    +0.145 C 
BRANCH  31  32
ATOM     32  N   LEU A   1     -17.750   8.764  -8.010  0.00  0.00    -0.238 NA
ATOM     33  H   LEU A   1     -16.891   8.797  -7.424  0.00  0.00    +0.142 HD
ENDBRANCH  31  32
BRANCH  31  34
ATOM     34  CB  LEU A   1     -16.444  10.093  -9.669  0.00  0.00    +0.026 C 
BRANCH  34  35
ATOM     35  CG  LEU A   1     -16.264  11.365  -8.881  0.00  0.00    +0.002 C 
ATOM     36  CD2 LEU A   1     -15.001  12.016  -9.218  0.00  0.00    +0.000 C 
ATOM     37  CD1 LEU A   1     -17.409  12.313  -9.228  0.00  0.00    +0.000 C 
ENDBRANCH  34  35
ENDBRANCH  31  34
ENDBRANCH  27  31
ENDBRANCH  26  28
BRANCH  26  38
ATOM     38  CB  LYS A   2     -16.311   4.707 -10.415  0.00  0.00    +0.029 C 
BRANCH  38  39
ATOM     39  CG  LYS A   2     -15.509   3.937 -11.470  0.00  0.00    +0.000 C 
BRANCH  39  40
ATOM     40  CD  LYS A   2     -16.420   3.059 -12.406  0.00  0.00    -0.024 C 
BRANCH  40  41
ATOM     41  CE  LYS A   2     -15.630   2.114 -13.330  0.00  0.00    -0.086 C 
BRANCH  41  42
ATOM     42  NZ  LYS A   2     -16.511   0.993 -13.862  0.00  0.00    +0.380 N 
ATOM     43  HZ1 LYS A   2     -16.885   0.440 -13.065  0.00  0.00    -0.089 HD
ATOM     44  HZ2 LYS A   2     -17.300   1.401 -14.403  0.00  0.00    -0.089 HD
ATOM     45  HZ3 LYS A   2     -15.948   0.375 -14.481  0.00  0.00    -0.089 HD
ENDBRANCH  41  42
ENDBRANCH  40  41
ENDBRANCH  39  40
ENDBRANCH  38  39
ENDBRANCH  26  38
ENDBRANCH  22  26
ENDBRANCH  21  23
BRANCH  21  46
ATOM     46  CB  GLN A   3     -21.356   5.109  -8.418  0.00  0.00    +0.039 C 
BRANCH  46  47
ATOM     47  CG  GLN A   3     -22.865   4.734  -8.271  0.00  0.00    +0.087 C 
BRANCH  47  48
ATOM     48  CD  GLN A   3     -23.148   3.267  -8.673  0.00  0.00    +0.219 C 
ATOM     49  OE1 GLN A   3     -22.536   2.337  -8.131  0.00  0.00    -0.275 OA
ATOM     50  NE2 GLN A   3     -24.030   3.065  -9.656  0.00  0.00    -0.329 N 
ATOM     51 HE21 GLN A   3     -24.223   2.100  -9.991  0.00  0.00    +0.145 HD
ATOM     52 HE22 GLN A   3     -24.524   3.873 -10.086  0.00  0.00    +0.145 HD
ENDBRANCH  47  48
ENDBRANCH  46  47
ENDBRANCH  21  46
ENDBRANCH  17  21
ENDBRANCH  16  18
BRANCH  16  53
ATOM     53  CB  ASP A   4     -21.738   9.534 -11.224  0.00  0.00    +0.143 C 
BRANCH  53  54
ATOM     54  CG  ASP A   4     -22.595  10.555 -11.936  0.00  0.00    +0.367 C 
ATOM     55  OD2 ASP A   4     -23.800  10.613 -11.625  0.00  0.00    -0.246 OA
ATOM     56  OD1 ASP A   4     -22.087  11.293 -12.822  0.00  0.00    -0.246 OA
ENDBRANCH  53  54
ENDBRANCH  16  53
ENDBRANCH  12  16
ENDBRANCH  11  13
BRANCH  11  57
ATOM     57  CB  LEU A   5     -18.566   7.108 -14.757  0.00  0.00    +0.029 C 
BRANCH  57  58
ATOM     58  CG  LEU A   5     -18.020   6.438 -15.989  0.00  0.00    +0.002 C 
ATOM     59  CD2 LEU A   5     -16.485   6.108 -15.802  0.00  0.00    +0.000 C 
ATOM     60  CD1 LEU A   5     -18.281   7.315 -17.172  0.00  0.00    +0.000 C 
ENDBRANCH  57  58
ENDBRANCH  11  57
ENDBRANCH   7  11
ENDBRANCH   6   8
BRANCH   6  61
ATOM     61  CB  CYS A   6     -21.102   2.397 -13.946  0.00  0.00    +0.098 C 
ATOM     62  SG  CYS A   6     -19.402   1.868 -13.811  0.00  0.00    -0.080 S 
ENDBRANCH   6  61
ENDBRANCH   2   6
ENDBRANCH   1   3
BRANCH   1  63
ATOM     63  C   GLN A   7     -25.372   5.426 -15.318  0.00  0.00    +0.241 C 
ATOM     64  O   GLN A   7     -26.488   5.260 -15.769  0.00  0.00    -0.273 OA
ATOM     65  N   SER A   8     -24.474   6.262 -15.853  0.00  0.00    -0.295 N 
ATOM     66  H   SER A   8     -23.533   6.349 -15.418  0.00  0.00    +0.150 HD
BRANCH  65  67
ATOM     67  CA  SER A   8     -24.791   7.048 -17.028  0.00  0.00    +0.178 C 
BRANCH  67  68
ATOM     68  C   SER A   8     -24.684   6.248 -18.317  0.00  0.00    +0.243 C 
ATOM     69  N   MET A   9     -23.994   5.109 -18.246  0.00  0.00    -0.297 N 
ATOM     70  H   MET A   9     -23.656   4.785 -17.317  0.00  0.00    +0.150 HD
ATOM     71  O   SER A   8     -25.216   6.659 -19.348  0.00  0.00    -0.273 OA
BRANCH  69  72
ATOM     72  CA  MET A   9     -23.696   4.302 -19.422  0.00  0.00    +0.149 C 
BRANCH  72  73
ATOM     73  C   MET A   9     -24.727   3.263 -19.529  0.00  0.00    +0.241 C 
ATOM     74  N   ILE A  10     -24.887   2.489 -18.431  0.00  0.00    -0.297 N 
ATOM     75  H   ILE A  10     -24.256   2.657 -17.622  0.00  0.00    +0.150 HD
ATOM     76  O   MET A   9     -25.357   3.156 -20.585  0.00  0.00    -0.273 OA
BRANCH  74  77
ATOM     77  CA  ILE A  10     -25.896   1.424 -18.306  0.00  0.00    +0.149 C 
BRANCH  77  78
ATOM     78  C   ILE A  10     -27.168   1.860 -19.049  0.00  0.00    +0.241 C 
ATOM     79  N   MET A  11     -27.352   3.195 -19.142  0.00  0.00    -0.297 N 
ATOM     80  H   MET A  11     -26.701   3.826 -18.632  0.00  0.00    +0.150 HD
ATOM     81  O   ILE A  10     -27.937   0.994 -19.548  0.00  0.00    -0.273 OA
BRANCH  79  82
ATOM     82  CA  MET A  11     -28.453   3.799 -19.948  0.00  0.00    +0.149 C 
BRANCH  82  83
ATOM     83  C   MET A  11     -28.295   3.521 -21.467  0.00  0.00    +0.241 C 
ATOM     84  N   GLU A  12     -27.124   3.846 -21.980  0.00  0.00    -0.297 N 
ATOM     85  H   GLU A  12     -26.385   4.232 -21.358  0.00  0.00    +0.150 HD
ATOM     86  O   MET A  11     -29.200   3.006 -22.145  0.00  0.00    -0.273 OA
BRANCH  84  87
ATOM     87  CA  GLU A  12     -26.845   3.675 -23.401  0.00  0.00    +0.149 C 
BRANCH  87  88
ATOM     88  C   GLU A  12     -26.654   2.191 -23.833  0.00  0.00    +0.241 C 
ATOM     89  N   LEU A  13     -26.571   1.284 -22.861  0.00  0.00    -0.298 N 
ATOM     90  H   LEU A  13     -26.727   1.584 -21.877  0.00  0.00    +0.150 HD
ATOM     91  O   GLU A  12     -26.587   1.887 -25.031  0.00  0.00    -0.273 OA
BRANCH  89  92
ATOM     92  CA  LEU A  13     -26.266  -0.124 -23.135  0.00  0.00    +0.137 C 
BRANCH  92  93
ATOM     93  C   LEU A  13     -27.377  -0.736 -23.943  0.00  0.00    +0.227 C 
ATOM     94  O   LEU A  13     -28.527  -0.265 -23.897  0.00  0.00    -0.286 OA
ENDBRANCH  92  93
BRANCH  92  95
ATOM     95  CB  LEU A  13     -26.063  -0.940 -21.838  0.00  0.00    +0.028 C 
BRANCH  95  96
ATOM     96  CG  LEU A  13     -26.111  -2.500 -21.829  0.00  0.00    +0.002 C 
ATOM     97  CD2 LEU A  13     -26.277  -3.050 -20.401  0.00  0.00    +0.000 C 
ATOM     98  CD1 LEU A  13     -24.903  -3.204 -22.539  0.00  0.00    +0.000 C 
ENDBRANCH  95  96
ENDBRANCH  92  95
ENDBRANCH  89  92
ENDBRANCH  87  88
BRANCH  87  99
ATOM     99  CB  GLU A  12     -25.653   4.599 -23.823  0.00  0.00    +0.041 C 
BRANCH  99 100
ATOM    100  CG  GLU A  12     -26.021   6.107 -23.885  0.00  0.00    +0.116 C 
BRANCH 100 101
ATOM    101  CD  GLU A  12     -24.876   7.078 -23.438  0.00  0.00    +0.365 C 
ATOM    102  OE2 GLU A  12     -24.007   6.719 -22.543  0.00  0.00    -0.246 OA
ATOM    103  OE1 GLU A  12     -24.877   8.227 -23.978  0.00  0.00    -0.246 OA
ENDBRANCH 100 101
ENDBRANCH  99 100
ENDBRANCH  87  99
ENDBRANCH  84  87
ENDBRANCH  82  83
BRANCH  82 104
ATOM    104  CB  MET A  11     -28.610   5.306 -19.640  0.00  0.00    +0.041 C 
BRANCH 104 105
ATOM    105  CG  MET A  11     -28.677   5.613 -18.125  0.00  0.00    +0.060 C 
BRANCH 105 106
ATOM    106  SD  MET A  11     -29.442   7.207 -17.635  0.00  0.00    -0.139 S 
ATOM    107  CE  MET A  11     -28.115   8.430 -18.119  0.00  0.00    +0.069 C 
ENDBRANCH 105 106
ENDBRANCH 104 105
ENDBRANCH  82 104
ENDBRANCH  79  82
ENDBRANCH  77  78
BRANCH  77 108
ATOM    108  CB  ILE A  10     -26.202   1.059 -16.800  0.00  0.00    +0.027 C 
ATOM    109  CG2 ILE A  10     -27.289   0.003 -16.693  0.00  0.00    +0.002 C 
BRANCH 108 110
ATOM    110  CG1 ILE A  10     -24.943   0.564 -16.082  0.00  0.00    +0.002 C 
ATOM    111  CD1 ILE A  10     -24.220  -0.634 -16.767  0.00  0.00    +0.000 C 
ENDBRANCH 108 110
ENDBRANCH  77 108
ENDBRANCH  74  77
ENDBRANCH  72  73
BRANCH  72 112
ATOM    112  CB  MET A   9     -22.366   3.585 -19.282  0.00  0.00    +0.041 C 
BRANCH 112 113
ATOM    113  CG  MET A   9     -22.382   2.128 -19.805  0.00  0.00    +0.060 C 
BRANCH 113 114
ATOM    114  SD  MET A   9     -22.122   1.861 -21.592  0.00  0.00    -0.139 S 
ATOM    115  CE  MET A   9     -22.372   0.096 -21.729  0.00  0.00    +0.069 C 
ENDBRANCH 113 114
ENDBRANCH 112 113
ENDBRANCH  72 112
ENDBRANCH  69  72
ENDBRANCH  67  68
BRANCH  67 116
ATOM    116  CB  SER A   8     -23.949   8.318 -17.072  0.00  0.00    +0.166 C 
BRANCH 116 117
ATOM    117  OG  SER A   8     -22.632   8.088 -17.495  0.00  0.00    -0.380 OA
ATOM    118  H   SER A   8     -22.192   7.456 -16.872  0.00  0.00    +0.211 HD
ENDBRANCH 116 117
ENDBRANCH  67 116
ENDBRANCH  65  67
ENDBRANCH   1  63
BRANCH   1 119
ATOM    119  CB  GLN A   7     -25.523   5.259 -12.841  0.00  0.00    +0.039 C 
BRANCH 119 120
ATOM    120  CG  GLN A   7     -26.997   5.709 -12.953  0.00  0.00    +0.087 C 
BRANCH 120 121
ATOM    121  CD  GLN A   7     -28.010   4.549 -13.277  0.00  0.00    +0.219 C 
ATOM    122  NE2 GLN A   7     -27.597   3.292 -13.012  0.00  0.00    -0.329 N 
ATOM    123 HE21 GLN A   7     -26.666   3.131 -12.577  0.00  0.00    +0.145 HD
ATOM    124 HE22 GLN A   7     -28.209   2.484 -13.243  0.00  0.00    +0.145 HD
ATOM    125  OE1 GLN A   7     -29.137   4.809 -13.808  0.00  0.00    -0.275 OA
ENDBRANCH 120 121
ENDBRANCH 119 120
ENDBRANCH   1 119
TORSDOF 59
REMARK  Name = ../refined-set-2016/3vw1/3vw1_pocket.pdb
REMARK  263 active torsions:
REMARK  status: ('A' for Active; 'I' for Inactive)
REMARK    1  A    between atoms: _1  and  _3
REMARK    2  A    between atoms: _3  and  _4
REMARK    3  A    between atoms: _3  and  _6
REMARK    4  A    between atoms: _6  and  _7
REMARK    5  A    between atoms: _12  and  _13
REMARK    6  A    between atoms: _15  and  _17
REMARK    7  A    between atoms: _17  and  _18
REMARK    8  A    between atoms: _17  and  _20
REMARK    9  A    between atoms: _20  and  _21
REMARK   10  A    between atoms: _24  and  _26
REMARK   11  A    between atoms: _26  and  _27
REMARK   12  A    between atoms: _26  and  _29
REMARK   13  A    between atoms: _29  and  _30
REMARK   14  A    between atoms: _30  and  _31
REMARK   15  A    between atoms: _31  and  _32
REMARK   16  A    between atoms: _32  and  _33
REMARK   17  A    between atoms: _37  and  _39
REMARK   18  A    between atoms: _39  and  _40
REMARK   19  A    between atoms: _39  and  _42
REMARK   20  A    between atoms: _42  and  _43
REMARK   21  A    between atoms: _43  and  _44
REMARK   22  A    between atoms: _49  and  _51
REMARK   23  A    between atoms: _51  and  _52
REMARK   24  A    between atoms: _51  and  _54
REMARK   25  A    between atoms: _54  and  _55
REMARK   26  A    between atoms: _58  and  _60
REMARK   27  A    between atoms: _60  and  _61
REMARK   28  A    between atoms: _60  and  _63
REMARK   29  A    between atoms: _63  and  _64
REMARK   30  A    between atoms: _67  and  _69
REMARK   31  A    between atoms: _69  and  _70
REMARK   32  A    between atoms: _69  and  _72
REMARK   33  A    between atoms: _74  and  _76
REMARK   34  A    between atoms: _76  and  _77
REMARK   35  A    between atoms: _76  and  _79
REMARK   36  A    between atoms: _79  and  _80
REMARK   37  A    between atoms: _80  and  _81
REMARK   38  A    between atoms: _86  and  _88
REMARK   39  A    between atoms: _88  and  _89
REMARK   40  A    between atoms: _88  and  _91
REMARK   41  A    between atoms: _91  and  _92
REMARK   42  A    between atoms: _94  and  _96
REMARK   43  A    between atoms: _96  and  _97
REMARK   44  A    between atoms: _96  and  _99
REMARK   45  A    between atoms: _99  and  _100
REMARK   46  A    between atoms: _100  and  _101
REMARK   47  A    between atoms: _103  and  _105
REMARK   48  A    between atoms: _105  and  _106
REMARK   49  A    between atoms: _105  and  _108
REMARK   50  A    between atoms: _108  and  _109
REMARK   51  A    between atoms: _112  and  _114
REMARK   52  A    between atoms: _114  and  _115
REMARK   53  A    between atoms: _114  and  _117
REMARK   54  A    between atoms: _117  and  _118
REMARK   55  A    between atoms: _118  and  _119
REMARK   56  A    between atoms: _121  and  _123
REMARK   57  A    between atoms: _123  and  _124
REMARK   58  A    between atoms: _123  and  _126
REMARK   59  A    between atoms: _126  and  _127
REMARK   60  A    between atoms: _127  and  _128
REMARK   61  A    between atoms: _131  and  _133
REMARK   62  A    between atoms: _133  and  _134
REMARK   63  A    between atoms: _133  and  _136
REMARK   64  A    between atoms: _136  and  _137
REMARK   65  A    between atoms: _140  and  _142
REMARK   66  A    between atoms: _142  and  _143
REMARK   67  A    between atoms: _146  and  _148
REMARK   68  A    between atoms: _148  and  _149
REMARK   69  A    between atoms: _148  and  _151
REMARK   70  A    between atoms: _151  and  _152
REMARK   71  A    between atoms: _152  and  _153
REMARK   72  A    between atoms: _155  and  _157
REMARK   73  A    between atoms: _157  and  _158
REMARK   74  A    between atoms: _157  and  _160
REMARK   75  A    between atoms: _160  and  _161
REMARK   76  A    between atoms: _164  and  _166
REMARK   77  A    between atoms: _166  and  _167
REMARK   78  A    between atoms: _166  and  _169
REMARK   79  A    between atoms: _169  and  _170
REMARK   80  A    between atoms: _170  and  _171
REMARK   81  A    between atoms: _171  and  _172
REMARK   82  A    between atoms: _181  and  _183
REMARK   83  A    between atoms: _183  and  _184
REMARK   84  A    between atoms: _183  and  _186
REMARK   85  A    between atoms: _186  and  _187
REMARK   86  A    between atoms: _193  and  _195
REMARK   87  A    between atoms: _195  and  _196
REMARK   88  A    between atoms: _195  and  _198
REMARK   89  A    between atoms: _198  and  _199
REMARK   90  A    between atoms: _202  and  _204
REMARK   91  A    between atoms: _204  and  _205
REMARK   92  A    between atoms: _204  and  _207
REMARK   93  A    between atoms: _207  and  _208
REMARK   94  A    between atoms: _218  and  _220
REMARK   95  A    between atoms: _220  and  _221
REMARK   96  A    between atoms: _220  and  _223
REMARK   97  A    between atoms: _223  and  _224
REMARK   98  A    between atoms: _229  and  _231
REMARK   99  A    between atoms: _231  and  _232
REMARK  100  A    between atoms: _231  and  _234
REMARK  101  A    between atoms: _234  and  _235
REMARK  102  A    between atoms: _237  and  _239
REMARK  103  A    between atoms: _239  and  _240
REMARK  104  A    between atoms: _239  and  _242
REMARK  105  A    between atoms: _242  and  _243
REMARK  106  A    between atoms: _248  and  _249
REMARK  107  A    between atoms: _251  and  _253
REMARK  108  A    between atoms: _253  and  _254
REMARK  109  A    between atoms: _253  and  _256
REMARK  110  A    between atoms: _256  and  _257
REMARK  111  A    between atoms: _260  and  _262
REMARK  112  A    between atoms: _262  and  _263
REMARK  113  A    between atoms: _262  and  _265
REMARK  114  A    between atoms: _265  and  _266
REMARK  115  A    between atoms: _268  and  _270
REMARK  116  A    between atoms: _270  and  _271
REMARK  117  A    between atoms: _270  and  _273
REMARK  118  A    between atoms: _273  and  _274
REMARK  119  A    between atoms: _284  and  _286
REMARK  120  A    between atoms: _286  and  _287
REMARK  121  A    between atoms: _289  and  _291
REMARK  122  A    between atoms: _291  and  _292
REMARK  123  A    between atoms: _291  and  _294
REMARK  124  A    between atoms: _294  and  _295
REMARK  125  A    between atoms: _295  and  _296
REMARK  126  A    between atoms: _296  and  _297
REMARK  127  A    between atoms: _306  and  _308
REMARK  128  A    between atoms: _308  and  _309
REMARK  129  A    between atoms: _308  and  _311
REMARK  130  A    between atoms: _311  and  _312
REMARK  131  A    between atoms: _317  and  _319
REMARK  132  A    between atoms: _319  and  _320
REMARK  133  A    between atoms: _323  and  _325
REMARK  134  A    between atoms: _325  and  _326
REMARK  135  A    between atoms: _325  and  _328
REMARK  136  A    between atoms: _328  and  _329
REMARK  137  A    between atoms: _332  and  _334
REMARK  138  A    between atoms: _334  and  _335
REMARK  139  A    between atoms: _334  and  _337
REMARK  140  A    between atoms: _337  and  _338
REMARK  141  A    between atoms: _338  and  _339
REMARK  142  A    between atoms: _339  and  _340
REMARK  143  A    between atoms: _349  and  _351
REMARK  144  A    between atoms: _351  and  _352
REMARK  145  A    between atoms: _351  and  _354
REMARK  146  A    between atoms: _354  and  _355
REMARK  147  A    between atoms: _355  and  _356
REMARK  148  A    between atoms: _361  and  _363
REMARK  149  A    between atoms: _363  and  _364
REMARK  150  A    between atoms: _363  and  _366
REMARK  151  A    between atoms: _366  and  _367
REMARK  152  A    between atoms: _370  and  _372
REMARK  153  A    between atoms: _372  and  _373
REMARK  154  A    between atoms: _376  and  _378
REMARK  155  A    between atoms: _378  and  _379
REMARK  156  A    between atoms: _378  and  _381
REMARK  157  A    between atoms: _384  and  _386
REMARK  158  A    between atoms: _386  and  _387
REMARK  159  A    between atoms: _386  and  _389
REMARK  160  A    between atoms: _389  and  _390
REMARK  161  A    between atoms: _393  and  _395
REMARK  162  A    between atoms: _395  and  _396
REMARK  163  A    between atoms: _399  and  _401
REMARK  164  A    between atoms: _401  and  _402
REMARK  165  A    between atoms: _401  and  _404
REMARK  166  A    between atoms: _404  and  _405
REMARK  167  A    between atoms: _408  and  _410
REMARK  168  A    between atoms: _410  and  _411
REMARK  169  A    between atoms: _410  and  _413
REMARK  170  A    between atoms: _413  and  _414
REMARK  171  A    between atoms: _414  and  _415
REMARK  172  A    between atoms: _417  and  _419
REMARK  173  A    between atoms: _419  and  _420
REMARK  174  A    between atoms: _419  and  _422
REMARK  175  A    between atoms: _422  and  _423
REMARK  176  A    between atoms: _429  and  _431
REMARK  177  A    between atoms: _431  and  _432
REMARK  178  A    between atoms: _431  and  _434
REMARK  179  A    between atoms: _434  and  _435
REMARK  180  A    between atoms: _438  and  _440
REMARK  181  A    between atoms: _440  and  _441
REMARK  182  A    between atoms: _440  and  _443
REMARK  183  A    between atoms: _443  and  _444
REMARK  184  A    between atoms: _444  and  _445
REMARK  185  A    between atoms: _445  and  _446
REMARK  186  A    between atoms: _455  and  _457
REMARK  187  A    between atoms: _457  and  _458
REMARK  188  A    between atoms: _457  and  _460
REMARK  189  A    between atoms: _460  and  _461
REMARK  190  A    between atoms: _464  and  _466
REMARK  191  A    between atoms: _466  and  _467
REMARK  192  A    between atoms: _466  and  _469
REMARK  193  A    between atoms: _471  and  _473
REMARK  194  A    between atoms: _473  and  _474
REMARK  195  A    between atoms: _473  and  _476
REMARK  196  A    between atoms: _476  and  _477
REMARK  197  A    between atoms: _479  and  _481
REMARK  198  A    between atoms: _481  and  _482
REMARK  199  A    between atoms: _481  and  _484
REMARK  200  A    between atoms: _487  and  _489
REMARK  201  A    between atoms: _489  and  _490
REMARK  202  A    between atoms: _489  and  _492
REMARK  203  A    between atoms: _492  and  _493
REMARK  204  A    between atoms: _496  and  _498
REMARK  205  A    between atoms: _498  and  _499
REMARK  206  A    between atoms: _498  and  _501
REMARK  207  A    between atoms: _501  and  _502
REMARK  208  A    between atoms: _508  and  _510
REMARK  209  A    between atoms: _510  and  _511
REMARK  210  A    between atoms: _510  and  _513
REMARK  211  A    between atoms: _513  and  _514
REMARK  212  A    between atoms: _514  and  _515
REMARK  213  A    between atoms: _517  and  _519
REMARK  214  A    between atoms: _519  and  _520
REMARK  215  A    between atoms: _519  and  _522
REMARK  216  A    between atoms: _522  and  _523
REMARK  217  A    between atoms: _523  and  _524
REMARK  218  A    between atoms: _524  and  _525
REMARK  219  A    between atoms: _534  and  _536
REMARK  220  A    between atoms: _536  and  _537
REMARK  221  A    between atoms: _540  and  _542
REMARK  222  A    between atoms: _542  and  _543
REMARK  223  A    between atoms: _545  and  _547
REMARK  224  A    between atoms: _547  and  _548
REMARK  225  A    between atoms: _547  and  _550
REMARK  226  A    between atoms: _550  and  _551
REMARK  227  A    between atoms: _554  and  _556
REMARK  228  A    between atoms: _556  and  _557
REMARK  229  A    between atoms: _559  and  _561
REMARK  230  A    between atoms: _561  and  _562
REMARK  231  A    between atoms: _561  and  _564
REMARK  232  A    between atoms: _564  and  _565
REMARK  233  A    between atoms: _568  and  _570
REMARK  234  A    between atoms: _570  and  _571
REMARK  235  A    between atoms: _570  and  _573
REMARK  236  A    between atoms: _573  and  _574
REMARK  237  A    between atoms: _580  and  _582
REMARK  238  A    between atoms: _582  and  _583
REMARK  239  A    between atoms: _582  and  _585
REMARK  240  A    between atoms: _585  and  _586
REMARK  241  A    between atoms: _589  and  _591
REMARK  242  A    between atoms: _591  and  _592
REMARK  243  A    between atoms: _595  and  _597
REMARK  244  A    between atoms: _597  and  _598
REMARK  245  A    between atoms: _597  and  _600
REMARK  246  A    between atoms: _600  and  _601
REMARK  247  A    between atoms: _607  and  _609
REMARK  248  A    between atoms: _609  and  _610
REMARK  249  A    between atoms: _609  and  _612
REMARK  250  A    between atoms: _612  and  _613
REMARK  251  A    between atoms: _613  and  _614
REMARK  252  A    between atoms: _616  and  _618
REMARK  253  A    between atoms: _618  and  _619
REMARK  254  A    between atoms: _618  and  _621
REMARK  255  A    between atoms: _621  and  _622
REMARK  256  A    between atoms: _632  and  _634
REMARK  257  A    between atoms: _634  and  _635
REMARK  258  A    between atoms: _634  and  _637
REMARK  259  A    between atoms: _637  and  _638
REMARK  260  A    between atoms: _641  and  _643
REMARK  261  A    between atoms: _643  and  _644
REMARK  262  A    between atoms: _643  and  _646
REMARK  263  A    between atoms: _646  and  _647
REMARK                            x       y       z     vdW  Elec       q    Type
REMARK                         _______ _______ _______ _____ _____    ______ ____
ROOT
ATOM      1  CA  ALA A   1     -16.514  -6.828 -29.301  0.00  0.00    +0.133 C 
ATOM      2  CB  ALA A   1     -15.303  -7.724 -29.126  0.00  0.00    +0.027 C 
ENDROOT
BRANCH   1   3
ATOM      3  N   ALA A   1     -17.392  -7.351 -30.376  0.00  0.00    -0.239 NA
ATOM      4  H   ALA A   1     -17.125  -8.243 -30.839  0.00  0.00    +0.142 HD
ENDBRANCH   1   3
BRANCH   1   5
ATOM      5  C   ALA A   1     -16.066  -5.353 -29.553  0.00  0.00    +0.224 C 
ATOM      6  O   ALA A   1     -16.128  -4.531 -28.666  0.00  0.00    -0.287 OA
ENDBRANCH   1   5
TORSDOF 2
REMARK  Name = ../refined-set-2016/3vw1/3vw1_pocket.pdb
REMARK  263 active torsions:
REMARK  status: ('A' for Active; 'I' for Inactive)
REMARK    1  A    between atoms: _1  and  _3
REMARK    2  A    between atoms: _3  and  _4
REMARK    3  A    between atoms: _3  and  _6
REMARK    4  A    between atoms: _6  and  _7
REMARK    5  A    between atoms: _12  and  _13
REMARK    6  A    between atoms: _15  and  _17
REMARK    7  A    between atoms: _17  and  _18
REMARK    8  A    between atoms: _17  and  _20
REMARK    9  A    between atoms: _20  and  _21
REMARK   10  A    between atoms: _24  and  _26
REMARK   11  A    between atoms: _26  and  _27
REMARK   12  A    between atoms: _26  and  _29
REMARK   13  A    between atoms: _29  and  _30
REMARK   14  A    between atoms: _30  and  _31
REMARK   15  A    between atoms: _31  and  _32
REMARK   16  A    between atoms: _32  and  _33
REMARK   17  A    between atoms: _37  and  _39
REMARK   18  A    between atoms: _39  and  _40
REMARK   19  A    between atoms: _39  and  _42
REMARK   20  A    between atoms: _42  and  _43
REMARK   21  A    between atoms: _43  and  _44
REMARK   22  A    between atoms: _49  and  _51
REMARK   23  A    between atoms: _51  and  _52
REMARK   24  A    between atoms: _51  and  _54
REMARK   25  A    between atoms: _54  and  _55
REMARK   26  A    between atoms: _58  and  _60
REMARK   27  A    between atoms: _60  and  _61
REMARK   28  A    between atoms: _60  and  _63
REMARK   29  A    between atoms: _63  and  _64
REMARK   30  A    between atoms: _67  and  _69
REMARK   31  A    between atoms: _69  and  _70
REMARK   32  A    between atoms: _69  and  _72
REMARK   33  A    between atoms: _74  and  _76
REMARK   34  A    between atoms: _76  and  _77
REMARK   35  A    between atoms: _76  and  _79
REMARK   36  A    between atoms: _79  and  _80
REMARK   37  A    between atoms: _80  and  _81
REMARK   38  A    between atoms: _86  and  _88
REMARK   39  A    between atoms: _88  and  _89
REMARK   40  A    between atoms: _88  and  _91
REMARK   41  A    between atoms: _91  and  _92
REMARK   42  A    between atoms: _94  and  _96
REMARK   43  A    between atoms: _96  and  _97
REMARK   44  A    between atoms: _96  and  _99
REMARK   45  A    between atoms: _99  and  _100
REMARK   46  A    between atoms: _100  and  _101
REMARK   47  A    between atoms: _103  and  _105
REMARK   48  A    between atoms: _105  and  _106
REMARK   49  A    between atoms: _105  and  _108
REMARK   50  A    between atoms: _108  and  _109
REMARK   51  A    between atoms: _112  and  _114
REMARK   52  A    between atoms: _114  and  _115
REMARK   53  A    between atoms: _114  and  _117
REMARK   54  A    between atoms: _117  and  _118
REMARK   55  A    between atoms: _118  and  _119
REMARK   56  A    between atoms: _121  and  _123
REMARK   57  A    between atoms: _123  and  _124
REMARK   58  A    between atoms: _123  and  _126
REMARK   59  A    between atoms: _126  and  _127
REMARK   60  A    between atoms: _127  and  _128
REMARK   61  A    between atoms: _131  and  _133
REMARK   62  A    between atoms: _133  and  _134
REMARK   63  A    between atoms: _133  and  _136
REMARK   64  A    between atoms: _136  and  _137
REMARK   65  A    between atoms: _140  and  _142
REMARK   66  A    between atoms: _142  and  _143
REMARK   67  A    between atoms: _146  and  _148
REMARK   68  A    between atoms: _148  and  _149
REMARK   69  A    between atoms: _148  and  _151
REMARK   70  A    between atoms: _151  and  _152
REMARK   71  A    between atoms: _152  and  _153
REMARK   72  A    between atoms: _155  and  _157
REMARK   73  A    between atoms: _157  and  _158
REMARK   74  A    between atoms: _157  and  _160
REMARK   75  A    between atoms: _160  and  _161
REMARK   76  A    between atoms: _164  and  _166
REMARK   77  A    between atoms: _166  and  _167
REMARK   78  A    between atoms: _166  and  _169
REMARK   79  A    between atoms: _169  and  _170
REMARK   80  A    between atoms: _170  and  _171
REMARK   81  A    between atoms: _171  and  _172
REMARK   82  A    between atoms: _181  and  _183
REMARK   83  A    between atoms: _183  and  _184
REMARK   84  A    between atoms: _183  and  _186
REMARK   85  A    between atoms: _186  and  _187
REMARK   86  A    between atoms: _193  and  _195
REMARK   87  A    between atoms: _195  and  _196
REMARK   88  A    between atoms: _195  and  _198
REMARK   89  A    between atoms: _198  and  _199
REMARK   90  A    between atoms: _202  and  _204
REMARK   91  A    between atoms: _204  and  _205
REMARK   92  A    between atoms: _204  and  _207
REMARK   93  A    between atoms: _207  and  _208
REMARK   94  A    between atoms: _218  and  _220
REMARK   95  A    between atoms: _220  and  _221
REMARK   96  A    between atoms: _220  and  _223
REMARK   97  A    between atoms: _223  and  _224
REMARK   98  A    between atoms: _229  and  _231
REMARK   99  A    between atoms: _231  and  _232
REMARK  100  A    between atoms: _231  and  _234
REMARK  101  A    between atoms: _234  and  _235
REMARK  102  A    between atoms: _237  and  _239
REMARK  103  A    between atoms: _239  and  _240
REMARK  104  A    between atoms: _239  and  _242
REMARK  105  A    between atoms: _242  and  _243
REMARK  106  A    between atoms: _248  and  _249
REMARK  107  A    between atoms: _251  and  _253
REMARK  108  A    between atoms: _253  and  _254
REMARK  109  A    between atoms: _253  and  _256
REMARK  110  A    between atoms: _256  and  _257
REMARK  111  A    between atoms: _260  and  _262
REMARK  112  A    between atoms: _262  and  _263
REMARK  113  A    between atoms: _262  and  _265
REMARK  114  A    between atoms: _265  and  _266
REMARK  115  A    between atoms: _268  and  _270
REMARK  116  A    between atoms: _270  and  _271
REMARK  117  A    between atoms: _270  and  _273
REMARK  118  A    between atoms: _273  and  _274
REMARK  119  A    between atoms: _284  and  _286
REMARK  120  A    between atoms: _286  and  _287
REMARK  121  A    between atoms: _289  and  _291
REMARK  122  A    between atoms: _291  and  _292
REMARK  123  A    between atoms: _291  and  _294
REMARK  124  A    between atoms: _294  and  _295
REMARK  125  A    between atoms: _295  and  _296
REMARK  126  A    between atoms: _296  and  _297
REMARK  127  A    between atoms: _306  and  _308
REMARK  128  A    between atoms: _308  and  _309
REMARK  129  A    between atoms: _308  and  _311
REMARK  130  A    between atoms: _311  and  _312
REMARK  131  A    between atoms: _317  and  _319
REMARK  132  A    between atoms: _319  and  _320
REMARK  133  A    between atoms: _323  and  _325
REMARK  134  A    between atoms: _325  and  _326
REMARK  135  A    between atoms: _325  and  _328
REMARK  136  A    between atoms: _328  and  _329
REMARK  137  A    between atoms: _332  and  _334
REMARK  138  A    between atoms: _334  and  _335
REMARK  139  A    between atoms: _334  and  _337
REMARK  140  A    between atoms: _337  and  _338
REMARK  141  A    between atoms: _338  and  _339
REMARK  142  A    between atoms: _339  and  _340
REMARK  143  A    between atoms: _349  and  _351
REMARK  144  A    between atoms: _351  and  _352
REMARK  145  A    between atoms: _351  and  _354
REMARK  146  A    between atoms: _354  and  _355
REMARK  147  A    between atoms: _355  and  _356
REMARK  148  A    between atoms: _361  and  _363
REMARK  149  A    between atoms: _363  and  _364
REMARK  150  A    between atoms: _363  and  _366
REMARK  151  A    between atoms: _366  and  _367
REMARK  152  A    between atoms: _370  and  _372
REMARK  153  A    between atoms: _372  and  _373
REMARK  154  A    between atoms: _376  and  _378
REMARK  155  A    between atoms: _378  and  _379
REMARK  156  A    between atoms: _378  and  _381
REMARK  157  A    between atoms: _384  and  _386
REMARK  158  A    between atoms: _386  and  _387
REMARK  159  A    between atoms: _386  and  _389
REMARK  160  A    between atoms: _389  and  _390
REMARK  161  A    between atoms: _393  and  _395
REMARK  162  A    between atoms: _395  and  _396
REMARK  163  A    between atoms: _399  and  _401
REMARK  164  A    between atoms: _401  and  _402
REMARK  165  A    between atoms: _401  and  _404
REMARK  166  A    between atoms: _404  and  _405
REMARK  167  A    between atoms: _408  and  _410
REMARK  168  A    between atoms: _410  and  _411
REMARK  169  A    between atoms: _410  and  _413
REMARK  170  A    between atoms: _413  and  _414
REMARK  171  A    between atoms: _414  and  _415
REMARK  172  A    between atoms: _417  and  _419
REMARK  173  A    between atoms: _419  and  _420
REMARK  174  A    between atoms: _419  and  _422
REMARK  175  A    between atoms: _422  and  _423
REMARK  176  A    between atoms: _429  and  _431
REMARK  177  A    between atoms: _431  and  _432
REMARK  178  A    between atoms: _431  and  _434
REMARK  179  A    between atoms: _434  and  _435
REMARK  180  A    between atoms: _438  and  _440
REMARK  181  A    between atoms: _440  and  _441
REMARK  182  A    between atoms: _440  and  _443
REMARK  183  A    between atoms: _443  and  _444
REMARK  184  A    between atoms: _444  and  _445
REMARK  185  A    between atoms: _445  and  _446
REMARK  186  A    between atoms: _455  and  _457
REMARK  187  A    between atoms: _457  and  _458
REMARK  188  A    between atoms: _457  and  _460
REMARK  189  A    between atoms: _460  and  _461
REMARK  190  A    between atoms: _464  and  _466
REMARK  191  A    between atoms: _466  and  _467
REMARK  192  A    between atoms: _466  and  _469
REMARK  193  A    between atoms: _471  and  _473
REMARK  194  A    between atoms: _473  and  _474
REMARK  195  A    between atoms: _473  and  _476
REMARK  196  A    between atoms: _476  and  _477
REMARK  197  A    between atoms: _479  and  _481
REMARK  198  A    between atoms: _481  and  _482
REMARK  199  A    between atoms: _481  and  _484
REMARK  200  A    between atoms: _487  and  _489
REMARK  201  A    between atoms: _489  and  _490
REMARK  202  A    between atoms: _489  and  _492
REMARK  203  A    between atoms: _492  and  _493
REMARK  204  A    between atoms: _496  and  _498
REMARK  205  A    between atoms: _498  and  _499
REMARK  206  A    between atoms: _498  and  _501
REMARK  207  A    between atoms: _501  and  _502
REMARK  208  A    between atoms: _508  and  _510
REMARK  209  A    between atoms: _510  and  _511
REMARK  210  A    between atoms: _510  and  _513
REMARK  211  A    between atoms: _513  and  _514
REMARK  212  A    between atoms: _514  and  _515
REMARK  213  A    between atoms: _517  and  _519
REMARK  214  A    between atoms: _519  and  _520
REMARK  215  A    between atoms: _519  and  _522
REMARK  216  A    between atoms: _522  and  _523
REMARK  217  A    between atoms: _523  and  _524
REMARK  218  A    between atoms: _524  and  _525
REMARK  219  A    between atoms: _534  and  _536
REMARK  220  A    between atoms: _536  and  _537
REMARK  221  A    between atoms: _540  and  _542
REMARK  222  A    between atoms: _542  and  _543
REMARK  223  A    between atoms: _545  and  _547
REMARK  224  A    between atoms: _547  and  _548
REMARK  225  A    between atoms: _547  and  _550
REMARK  226  A    between atoms: _550  and  _551
REMARK  227  A    between atoms: _554  and  _556
REMARK  228  A    between atoms: _556  and  _557
REMARK  229  A    between atoms: _559  and  _561
REMARK  230  A    between atoms: _561  and  _562
REMARK  231  A    between atoms: _561  and  _564
REMARK  232  A    between atoms: _564  and  _565
REMARK  233  A    between atoms: _568  and  _570
REMARK  234  A    between atoms: _570  and  _571
REMARK  235  A    between atoms: _570  and  _573
REMARK  236  A    between atoms: _573  and  _574
REMARK  237  A    between atoms: _580  and  _582
REMARK  238  A    between atoms: _582  and  _583
REMARK  239  A    between atoms: _582  and  _585
REMARK  240  A    between atoms: _585  and  _586
REMARK  241  A    between atoms: _589  and  _591
REMARK  242  A    between atoms: _591  and  _592
REMARK  243  A    between atoms: _595  and  _597
REMARK  244  A    between atoms: _597  and  _598
REMARK  245  A    between atoms: _597  and  _600
REMARK  246  A    between atoms: _600  and  _601
REMARK  247  A    between atoms: _607  and  _609
REMARK  248  A    between atoms: _609  and  _610
REMARK  249  A    between atoms: _609  and  _612
REMARK  250  A    between atoms: _612  and  _613
REMARK  251  A    between atoms: _613  and  _614
REMARK  252  A    between atoms: _616  and  _618
REMARK  253  A    between atoms: _618  and  _619
REMARK  254  A    between atoms: _618  and  _621
REMARK  255  A    between atoms: _621  and  _622
REMARK  256  A    between atoms: _632  and  _634
REMARK  257  A    between atoms: _634  and  _635
REMARK  258  A    between atoms: _634  and  _637
REMARK  259  A    between atoms: _637  and  _638
REMARK  260  A    between atoms: _641  and  _643
REMARK  261  A    between atoms: _643  and  _644
REMARK  262  A    between atoms: _643  and  _646
REMARK  263  A    between atoms: _646  and  _647
REMARK                            x       y       z     vdW  Elec       q    Type
REMARK                         _______ _______ _______ _____ _____    ______ ____
ROOT
ATOM      1  C   TRP A   6     -17.074   6.080 -25.564  0.00  0.00    +0.241 C 
ATOM      2  O   TRP A   6     -16.872   7.109 -24.921  0.00  0.00    -0.273 OA
ATOM      3  N   ASN A   7     -18.083   5.950 -26.436  0.00  0.00    -0.297 N 
ATOM      4  H   ASN A   7     -18.167   5.073 -26.988  0.00  0.00    +0.150 HD
ENDROOT
BRANCH   1   5
ATOM      5  CA  TRP A   6     -16.134   4.865 -25.388  0.00  0.00    +0.153 C 
BRANCH   5   8
ATOM      6  C   ILE A   5     -17.646   3.462 -24.033  0.00  0.00    +0.241 C 
ATOM      7  O   ILE A   5     -17.701   4.282 -23.145  0.00  0.00    -0.273 OA
ATOM      8  N   TRP A   6     -16.933   3.624 -25.141  0.00  0.00    -0.297 N 
ATOM      9  H   TRP A   6     -16.930   2.869 -25.856  0.00  0.00    +0.150 HD
BRANCH   6  10
ATOM     10  CA  ILE A   5     -18.430   2.168 -23.938  0.00  0.00    +0.149 C 
BRANCH  10  13
ATOM     11  C   PHE A   4     -19.959   2.706 -25.752  0.00  0.00    +0.241 C 
ATOM     12  O   PHE A   4     -20.328   3.747 -25.176  0.00  0.00    -0.273 OA
ATOM     13  N   ILE A   5     -19.026   1.906 -25.261  0.00  0.00    -0.297 N 
ATOM     14  H   ILE A   5     -18.710   1.084 -25.814  0.00  0.00    +0.150 HD
BRANCH  11  15
ATOM     15  CA  PHE A   4     -20.489   2.306 -27.122  0.00  0.00    +0.153 C 
BRANCH  15  17
ATOM     16  C   ARG A   3     -18.343   2.463 -28.400  0.00  0.00    +0.241 C 
ATOM     17  N   PHE A   4     -19.383   1.714 -27.980  0.00  0.00    -0.297 N 
ATOM     18  H   PHE A   4     -19.429   0.710 -28.249  0.00  0.00    +0.150 HD
ATOM     19  O   ARG A   3     -18.158   3.655 -28.022  0.00  0.00    -0.273 OA
BRANCH  16  20
ATOM     20  CA  ARG A   3     -17.298   1.779 -29.224  0.00  0.00    +0.149 C 
BRANCH  20  23
ATOM     21  C   THR A   2     -16.495   0.417 -27.399  0.00  0.00    +0.243 C 
ATOM     22  O   THR A   2     -16.406   1.356 -26.687  0.00  0.00    -0.273 OA
ATOM     23  N   ARG A   3     -16.925   0.522 -28.649  0.00  0.00    -0.297 N 
ATOM     24  H   ARG A   3     -16.994  -0.337 -29.231  0.00  0.00    +0.150 HD
BRANCH  21  25
ATOM     25  CA  THR A   2     -16.202  -1.011 -26.871  0.00  0.00    +0.176 C 
BRANCH  25  28
ATOM     26  C   MET A   1     -18.499  -1.798 -27.082  0.00  0.00    +0.238 C 
ATOM     27  O   MET A   1     -18.895  -0.936 -26.311  0.00  0.00    -0.274 OA
ATOM     28  N   THR A   2     -17.212  -1.914 -27.429  0.00  0.00    -0.295 N 
ATOM     29  H   THR A   2     -16.925  -2.653 -28.102  0.00  0.00    +0.150 HD
BRANCH  26  30
ATOM     30  CA  MET A   1     -19.516  -2.798 -27.708  0.00  0.00    +0.146 C 
BRANCH  30  31
ATOM     31  N   MET A   1     -19.181  -3.019 -29.099  0.00  0.00    -0.238 NA
ATOM     32  H   MET A   1     -18.779  -3.931 -29.395  0.00  0.00    +0.142 HD
ENDBRANCH  30  31
BRANCH  30  33
ATOM     33  CB  MET A   1     -19.474  -4.083 -26.898  0.00  0.00    +0.038 C 
BRANCH  33  34
ATOM     34  CG  MET A   1     -20.518  -5.173 -27.273  0.00  0.00    +0.060 C 
BRANCH  34  35
ATOM     35  SD  MET A   1     -20.308  -6.682 -26.235  0.00  0.00    -0.139 S 
ATOM     36  CE  MET A   1     -20.491  -5.983 -24.598  0.00  0.00    +0.069 C 
ENDBRANCH  34  35
ENDBRANCH  33  34
ENDBRANCH  30  33
ENDBRANCH  26  30
ENDBRANCH  25  28
BRANCH  25  37
ATOM     37  CB  THR A   2     -14.789  -1.444 -27.282  0.00  0.00    +0.137 C 
ATOM     38  CG2 THR A   2     -13.735  -0.552 -26.649  0.00  0.00    +0.034 C 
BRANCH  37  39
ATOM     39  OG1 THR A   2     -14.571  -2.789 -26.826  0.00  0.00    -0.382 OA
ATOM     40  HG1 THR A   2     -15.242  -3.389 -27.239  0.00  0.00    +0.210 HD
ENDBRANCH  37  39
ENDBRANCH  25  37
ENDBRANCH  21  25
ENDBRANCH  20  23
BRANCH  20  41
ATOM     41  CB  ARG A   3     -17.744   1.592 -30.668  0.00  0.00    +0.033 C 
BRANCH  41  42
ATOM     42  CG  ARG A   3     -18.119   2.898 -31.352  0.00  0.00    +0.045 C 
BRANCH  42  43
ATOM     43  CD  ARG A   3     -18.662   2.629 -32.726  0.00  0.00    +0.174 C 
BRANCH  43  44
ATOM     44  NE  ARG A   3     -17.620   2.190 -33.679  0.00  0.00    -0.265 N 
ATOM     45  HE  ARG A   3     -17.564   1.174 -33.895  0.00  0.00    +0.259 HD
ATOM     46  CZ  ARG A   3     -16.751   2.994 -34.280  0.00  0.00    +0.342 C 
ATOM     47  NH2 ARG A   3     -16.780   4.337 -34.071  0.00  0.00    -0.292 N 
ATOM     48 HH21 ARG A   3     -17.490   4.749 -33.432  0.00  0.00    +0.255 HD
ATOM     49 HH22 ARG A   3     -16.092   4.953 -34.550  0.00  0.00    +0.255 HD
ATOM     50  NH1 ARG A   3     -15.871   2.453 -35.111  0.00  0.00    -0.292 N 
ATOM     51 HH11 ARG A   3     -15.875   1.426 -35.276  0.00  0.00    +0.255 HD
ATOM     52 HH12 ARG A   3     -15.177   3.055 -35.598  0.00  0.00    +0.255 HD
ENDBRANCH  43  44
ENDBRANCH  42  43
ENDBRANCH  41  42
ENDBRANCH  20  41
ENDBRANCH  16  20
ENDBRANCH  15  17
BRANCH  15  53
ATOM     53  CB  PHE A   4     -21.683   1.357 -26.939  0.00  0.00    +0.055 C 
BRANCH  53  54
ATOM     54  CG  PHE A   4     -22.293   0.917 -28.227  0.00  0.00    -0.020 A 
ATOM     55  CD2 PHE A   4     -23.029  -0.297 -28.287  0.00  0.00    -0.004 A 
ATOM     56  CE2 PHE A   4     -23.614  -0.737 -29.505  0.00  0.00    -0.000 A 
ATOM     57  CZ  PHE A   4     -23.470   0.030 -30.670  0.00  0.00    -0.000 A 
ATOM     58  CE1 PHE A   4     -22.739   1.256 -30.618  0.00  0.00    -0.000 A 
ATOM     59  CD1 PHE A   4     -22.150   1.671 -29.375  0.00  0.00    -0.004 A 
ENDBRANCH  53  54
ENDBRANCH  15  53
ENDBRANCH  11  15
ENDBRANCH  10  13
BRANCH  10  60
ATOM     60  CB  ILE A   5     -17.535   0.994 -23.508  0.00  0.00    +0.027 C 
ATOM     61  CG2 ILE A   5     -16.508   1.460 -22.491  0.00  0.00    +0.002 C 
BRANCH  60  62
ATOM     62  CG1 ILE A   5     -18.418  -0.142 -22.964  0.00  0.00    +0.002 C 
ATOM     63  CD1 ILE A   5     -17.628  -1.419 -22.741  0.00  0.00    +0.000 C 
ENDBRANCH  60  62
ENDBRANCH  10  60
ENDBRANCH   6  10
ENDBRANCH   5   8
BRANCH   5  64
ATOM     64  CB  TRP A   6     -15.290   4.662 -26.625  0.00  0.00    +0.057 C 
BRANCH  64  65
ATOM     65  CG  TRP A   6     -14.614   5.850 -27.215  0.00  0.00    -0.002 A 
ATOM     66  CD2 TRP A   6     -13.274   6.297 -26.924  0.00  0.00    +0.013 A 
ATOM     67  CE3 TRP A   6     -12.301   5.879 -26.036  0.00  0.00    +0.001 A 
ATOM     68  CZ3 TRP A   6     -11.071   6.575 -25.999  0.00  0.00    +0.000 A 
ATOM     69  CH2 TRP A   6     -10.858   7.646 -26.808  0.00  0.00    +0.001 A 
ATOM     70  CZ2 TRP A   6     -11.821   8.094 -27.678  0.00  0.00    +0.017 A 
ATOM     71  CE2 TRP A   6     -13.014   7.397 -27.740  0.00  0.00    +0.056 A 
ATOM     72  NE1 TRP A   6     -14.133   7.621 -28.519  0.00  0.00    -0.352 N 
ATOM     73  HE1 TRP A   6     -14.241   8.379 -29.223  0.00  0.00    +0.166 HD
ATOM     74  CD1 TRP A   6     -15.079   6.674 -28.207  0.00  0.00    +0.068 A 
ENDBRANCH  64  65
ENDBRANCH   5  64
ENDBRANCH   1   5
BRANCH   3  75
ATOM     75  CA  ASN A   7     -19.108   7.054 -26.638  0.00  0.00    +0.158 C 
BRANCH  75  76
ATOM     76  C   ASN A   7     -19.675   7.511 -25.364  0.00  0.00    +0.241 C 
ATOM     77  N   SER A   8     -20.018   6.559 -24.504  0.00  0.00    -0.295 N 
ATOM     78  H   SER A   8     -19.903   5.557 -24.759  0.00  0.00    +0.150 HD
ATOM     79  O   ASN A   7     -19.752   8.701 -25.076  0.00  0.00    -0.273 OA
BRANCH  77  80
ATOM     80  CA  SER A   8     -20.577   6.940 -23.153  0.00  0.00    +0.178 C 
BRANCH  80  81
ATOM     81  C   SER A   8     -19.572   7.664 -22.308  0.00  0.00    +0.243 C 
ATOM     82  O   SER A   8     -19.959   8.590 -21.585  0.00  0.00    -0.273 OA
ATOM     83  N   TYR A   9     -18.292   7.224 -22.344  0.00  0.00    -0.297 N 
ATOM     84  H   TYR A   9     -18.028   6.439 -22.973  0.00  0.00    +0.150 HD
BRANCH  83  85
ATOM     85  CA  TYR A   9     -17.270   7.862 -21.486  0.00  0.00    +0.153 C 
BRANCH  85  86
ATOM     86  C   TYR A   9     -17.127   9.308 -21.934  0.00  0.00    +0.241 C 
ATOM     87  O   TYR A   9     -17.121  10.219 -21.124  0.00  0.00    -0.273 OA
ATOM     88  N   ILE A  10     -17.027   9.516 -23.251  0.00  0.00    -0.297 N 
ATOM     89  H   ILE A  10     -17.019   8.707 -23.905  0.00  0.00    +0.150 HD
BRANCH  88  90
ATOM     90  CA  ILE A  10     -16.926  10.917 -23.789  0.00  0.00    +0.149 C 
BRANCH  90  91
ATOM     91  C   ILE A  10     -18.183  11.784 -23.394  0.00  0.00    +0.241 C 
ATOM     92  O   ILE A  10     -18.067  12.903 -22.939  0.00  0.00    -0.273 OA
ATOM     93  N   SER A  11     -19.376  11.236 -23.583  0.00  0.00    -0.295 N 
ATOM     94  H   SER A  11     -19.444  10.282 -23.992  0.00  0.00    +0.150 HD
BRANCH  93  95
ATOM     95  CA  SER A  11     -20.622  11.970 -23.217  0.00  0.00    +0.178 C 
BRANCH  95  96
ATOM     96  C   SER A  11     -20.650  12.382 -21.761  0.00  0.00    +0.243 C 
ATOM     97  N   TRP A  12     -20.347  11.451 -20.877  0.00  0.00    -0.297 N 
ATOM     98  H   TRP A  12     -20.104  10.496 -21.209  0.00  0.00    +0.150 HD
ATOM     99  O   SER A  11     -20.948  13.476 -21.441  0.00  0.00    -0.273 OA
BRANCH  97 100
ATOM    100  CA  TRP A  12     -20.345  11.727 -19.460  0.00  0.00    +0.153 C 
BRANCH 100 101
ATOM    101  C   TRP A  12     -19.298  12.817 -19.223  0.00  0.00    +0.241 C 
ATOM    102  O   TRP A  12     -19.504  13.734 -18.468  0.00  0.00    -0.273 OA
ATOM    103  N   GLY A  13     -18.142  12.681 -19.864  0.00  0.00    -0.296 N 
ATOM    104  H   GLY A  13     -18.004  11.895 -20.531  0.00  0.00    +0.150 HD
BRANCH 103 105
ATOM    105  CA  GLY A  13     -17.080  13.627 -19.631  0.00  0.00    +0.163 C 
BRANCH 105 106
ATOM    106  C   GLY A  13     -17.384  15.007 -20.141  0.00  0.00    +0.229 C 
ATOM    107  O   GLY A  13     -17.038  15.989 -19.491  0.00  0.00    -0.286 OA
ENDBRANCH 105 106
ENDBRANCH 103 105
ENDBRANCH 100 101
BRANCH 100 108
ATOM    108  CB  TRP A  12     -19.977  10.435 -18.734  0.00  0.00    +0.057 C 
BRANCH 108 109
ATOM    109  CG  TRP A  12     -19.825  10.602 -17.258  0.00  0.00    -0.002 A 
ATOM    110  CD1 TRP A  12     -20.847  10.684 -16.318  0.00  0.00    +0.068 A 
ATOM    111  NE1 TRP A  12     -20.324  10.824 -15.058  0.00  0.00    -0.352 N 
ATOM    112  HE1 TRP A  12     -20.876  10.922 -14.182  0.00  0.00    +0.166 HD
ATOM    113  CE2 TRP A  12     -18.951  10.814 -15.141  0.00  0.00    +0.056 A 
ATOM    114  CZ2 TRP A  12     -17.990  10.914 -14.132  0.00  0.00    +0.017 A 
ATOM    115  CH2 TRP A  12     -16.657  10.896 -14.505  0.00  0.00    +0.001 A 
ATOM    116  CZ3 TRP A  12     -16.278  10.753 -15.852  0.00  0.00    +0.000 A 
ATOM    117  CE3 TRP A  12     -17.258  10.640 -16.876  0.00  0.00    +0.001 A 
ATOM    118  CD2 TRP A  12     -18.600  10.686 -16.524  0.00  0.00    +0.013 A 
ENDBRANCH 108 109
ENDBRANCH 100 108
ENDBRANCH  97 100
ENDBRANCH  95  96
BRANCH  95 119
ATOM    119  CB  SER A  11     -21.863  11.037 -23.429  0.00  0.00    +0.166 C 
BRANCH 119 120
ATOM    120  OG  SER A  11     -21.955  10.765 -24.809  0.00  0.00    -0.380 OA
ATOM    121  H   SER A  11     -21.127  10.315 -25.111  0.00  0.00    +0.211 HD
ENDBRANCH 119 120
ENDBRANCH  95 119
ENDBRANCH  93  95
ENDBRANCH  90  91
BRANCH  90 122
ATOM    122  CB  ILE A  10     -16.783  10.920 -25.319  0.00  0.00    +0.027 C 
ATOM    123  CG2 ILE A  10     -16.605  12.325 -25.822  0.00  0.00    +0.002 C 
BRANCH 122 124
ATOM    124  CG1 ILE A  10     -15.619  10.010 -25.792  0.00  0.00    +0.002 C 
ATOM    125  CD1 ILE A  10     -14.264  10.468 -25.365  0.00  0.00    +0.000 C 
ENDBRANCH 122 124
ENDBRANCH  90 122
ENDBRANCH  88  90
ENDBRANCH  85  86
BRANCH  85 126
ATOM    126  CB  TYR A   9     -15.871   7.122 -21.562  0.00  0.00    +0.055 C 
BRANCH 126 127
ATOM    127  CG  TYR A   9     -14.948   7.762 -20.519  0.00  0.00    -0.020 A 
ATOM    128  CD2 TYR A   9     -15.099   7.479 -19.186  0.00  0.00    -0.001 A 
ATOM    129  CE2 TYR A   9     -14.326   8.095 -18.203  0.00  0.00    +0.036 A 
ATOM    130  CZ  TYR A   9     -13.423   9.031 -18.548  0.00  0.00    +0.134 A 
ATOM    131  CE1 TYR A   9     -13.252   9.369 -19.875  0.00  0.00    +0.036 A 
ATOM    132  CD1 TYR A   9     -14.036   8.731 -20.868  0.00  0.00    -0.001 A 
BRANCH 130 133
ATOM    133  OH  TYR A   9     -12.760   9.674 -17.566  0.00  0.00    -0.506 OA
ATOM    134  HH  TYR A   9     -13.016   9.289 -16.690  0.00  0.00    +0.292 HD
ENDBRANCH 130 133
ENDBRANCH 126 127
ENDBRANCH  85 126
ENDBRANCH  83  85
ENDBRANCH  80  81
BRANCH  80 135
ATOM    135  CB  SER A   8     -21.090   5.738 -22.380  0.00  0.00    +0.166 C 
BRANCH 135 136
ATOM    136  OG  SER A   8     -21.994   5.025 -23.246  0.00  0.00    -0.380 OA
ATOM    137  H   SER A   8     -21.510   4.735 -24.059  0.00  0.00    +0.211 HD
ENDBRANCH 135 136
ENDBRANCH  80 135
ENDBRANCH  77  80
ENDBRANCH  75  76
BRANCH  75 138
ATOM    138  CB  ASN A   7     -20.254   6.596 -27.591  0.00  0.00    +0.114 C 
BRANCH 138 139
ATOM    139  CG  ASN A   7     -19.754   6.335 -29.056  0.00  0.00    +0.222 C 
ATOM    140  ND2 ASN A   7     -18.522   6.736 -29.366  0.00  0.00    -0.329 N 
ATOM    141 HD21 ASN A   7     -17.927   7.194 -28.646  0.00  0.00    +0.145 HD
ATOM    142 HD22 ASN A   7     -18.155   6.591 -30.328  0.00  0.00    +0.145 HD
ATOM    143  OD1 ASN A   7     -20.500   5.780 -29.896  0.00  0.00    -0.275 OA
ENDBRANCH 138 139
ENDBRANCH  75 138
ENDBRANCH   3  75
TORSDOF 54
REMARK  Name = ../refined-set-2016/3vw1/3vw1_pocket.pdb
REMARK  263 active torsions:
REMARK  status: ('A' for Active; 'I' for Inactive)
REMARK    1  A    between atoms: _1  and  _3
REMARK    2  A    between atoms: _3  and  _4
REMARK    3  A    between atoms: _3  and  _6
REMARK    4  A    between atoms: _6  and  _7
REMARK    5  A    between atoms: _12  and  _13
REMARK    6  A    between atoms: _15  and  _17
REMARK    7  A    between atoms: _17  and  _18
REMARK    8  A    between atoms: _17  and  _20
REMARK    9  A    between atoms: _20  and  _21
REMARK   10  A    between atoms: _24  and  _26
REMARK   11  A    between atoms: _26  and  _27
REMARK   12  A    between atoms: _26  and  _29
REMARK   13  A    between atoms: _29  and  _30
REMARK   14  A    between atoms: _30  and  _31
REMARK   15  A    between atoms: _31  and  _32
REMARK   16  A    between atoms: _32  and  _33
REMARK   17  A    between atoms: _37  and  _39
REMARK   18  A    between atoms: _39  and  _40
REMARK   19  A    between atoms: _39  and  _42
REMARK   20  A    between atoms: _42  and  _43
REMARK   21  A    between atoms: _43  and  _44
REMARK   22  A    between atoms: _49  and  _51
REMARK   23  A    between atoms: _51  and  _52
REMARK   24  A    between atoms: _51  and  _54
REMARK   25  A    between atoms: _54  and  _55
REMARK   26  A    between atoms: _58  and  _60
REMARK   27  A    between atoms: _60  and  _61
REMARK   28  A    between atoms: _60  and  _63
REMARK   29  A    between atoms: _63  and  _64
REMARK   30  A    between atoms: _67  and  _69
REMARK   31  A    between atoms: _69  and  _70
REMARK   32  A    between atoms: _69  and  _72
REMARK   33  A    between atoms: _74  and  _76
REMARK   34  A    between atoms: _76  and  _77
REMARK   35  A    between atoms: _76  and  _79
REMARK   36  A    between atoms: _79  and  _80
REMARK   37  A    between atoms: _80  and  _81
REMARK   38  A    between atoms: _86  and  _88
REMARK   39  A    between atoms: _88  and  _89
REMARK   40  A    between atoms: _88  and  _91
REMARK   41  A    between atoms: _91  and  _92
REMARK   42  A    between atoms: _94  and  _96
REMARK   43  A    between atoms: _96  and  _97
REMARK   44  A    between atoms: _96  and  _99
REMARK   45  A    between atoms: _99  and  _100
REMARK   46  A    between atoms: _100  and  _101
REMARK   47  A    between atoms: _103  and  _105
REMARK   48  A    between atoms: _105  and  _106
REMARK   49  A    between atoms: _105  and  _108
REMARK   50  A    between atoms: _108  and  _109
REMARK   51  A    between atoms: _112  and  _114
REMARK   52  A    between atoms: _114  and  _115
REMARK   53  A    between atoms: _114  and  _117
REMARK   54  A    between atoms: _117  and  _118
REMARK   55  A    between atoms: _118  and  _119
REMARK   56  A    between atoms: _121  and  _123
REMARK   57  A    between atoms: _123  and  _124
REMARK   58  A    between atoms: _123  and  _126
REMARK   59  A    between atoms: _126  and  _127
REMARK   60  A    between atoms: _127  and  _128
REMARK   61  A    between atoms: _131  and  _133
REMARK   62  A    between atoms: _133  and  _134
REMARK   63  A    between atoms: _133  and  _136
REMARK   64  A    between atoms: _136  and  _137
REMARK   65  A    between atoms: _140  and  _142
REMARK   66  A    between atoms: _142  and  _143
REMARK   67  A    between atoms: _146  and  _148
REMARK   68  A    between atoms: _148  and  _149
REMARK   69  A    between atoms: _148  and  _151
REMARK   70  A    between atoms: _151  and  _152
REMARK   71  A    between atoms: _152  and  _153
REMARK   72  A    between atoms: _155  and  _157
REMARK   73  A    between atoms: _157  and  _158
REMARK   74  A    between atoms: _157  and  _160
REMARK   75  A    between atoms: _160  and  _161
REMARK   76  A    between atoms: _164  and  _166
REMARK   77  A    between atoms: _166  and  _167
REMARK   78  A    between atoms: _166  and  _169
REMARK   79  A    between atoms: _169  and  _170
REMARK   80  A    between atoms: _170  and  _171
REMARK   81  A    between atoms: _171  and  _172
REMARK   82  A    between atoms: _181  and  _183
REMARK   83  A    between atoms: _183  and  _184
REMARK   84  A    between atoms: _183  and  _186
REMARK   85  A    between atoms: _186  and  _187
REMARK   86  A    between atoms: _193  and  _195
REMARK   87  A    between atoms: _195  and  _196
REMARK   88  A    between atoms: _195  and  _198
REMARK   89  A    between atoms: _198  and  _199
REMARK   90  A    between atoms: _202  and  _204
REMARK   91  A    between atoms: _204  and  _205
REMARK   92  A    between atoms: _204  and  _207
REMARK   93  A    between atoms: _207  and  _208
REMARK   94  A    between atoms: _218  and  _220
REMARK   95  A    between atoms: _220  and  _221
REMARK   96  A    between atoms: _220  and  _223
REMARK   97  A    between atoms: _223  and  _224
REMARK   98  A    between atoms: _229  and  _231
REMARK   99  A    between atoms: _231  and  _232
REMARK  100  A    between atoms: _231  and  _234
REMARK  101  A    between atoms: _234  and  _235
REMARK  102  A    between atoms: _237  and  _239
REMARK  103  A    between atoms: _239  and  _240
REMARK  104  A    between atoms: _239  and  _242
REMARK  105  A    between atoms: _242  and  _243
REMARK  106  A    between atoms: _248  and  _249
REMARK  107  A    between atoms: _251  and  _253
REMARK  108  A    between atoms: _253  and  _254
REMARK  109  A    between atoms: _253  and  _256
REMARK  110  A    between atoms: _256  and  _257
REMARK  111  A    between atoms: _260  and  _262
REMARK  112  A    between atoms: _262  and  _263
REMARK  113  A    between atoms: _262  and  _265
REMARK  114  A    between atoms: _265  and  _266
REMARK  115  A    between atoms: _268  and  _270
REMARK  116  A    between atoms: _270  and  _271
REMARK  117  A    between atoms: _270  and  _273
REMARK  118  A    between atoms: _273  and  _274
REMARK  119  A    between atoms: _284  and  _286
REMARK  120  A    between atoms: _286  and  _287
REMARK  121  A    between atoms: _289  and  _291
REMARK  122  A    between atoms: _291  and  _292
REMARK  123  A    between atoms: _291  and  _294
REMARK  124  A    between atoms: _294  and  _295
REMARK  125  A    between atoms: _295  and  _296
REMARK  126  A    between atoms: _296  and  _297
REMARK  127  A    between atoms: _306  and  _308
REMARK  128  A    between atoms: _308  and  _309
REMARK  129  A    between atoms: _308  and  _311
REMARK  130  A    between atoms: _311  and  _312
REMARK  131  A    between atoms: _317  and  _319
REMARK  132  A    between atoms: _319  and  _320
REMARK  133  A    between atoms: _323  and  _325
REMARK  134  A    between atoms: _325  and  _326
REMARK  135  A    between atoms: _325  and  _328
REMARK  136  A    between atoms: _328  and  _329
REMARK  137  A    between atoms: _332  and  _334
REMARK  138  A    between atoms: _334  and  _335
REMARK  139  A    between atoms: _334  and  _337
REMARK  140  A    between atoms: _337  and  _338
REMARK  141  A    between atoms: _338  and  _339
REMARK  142  A    between atoms: _339  and  _340
REMARK  143  A    between atoms: _349  and  _351
REMARK  144  A    between atoms: _351  and  _352
REMARK  145  A    between atoms: _351  and  _354
REMARK  146  A    between atoms: _354  and  _355
REMARK  147  A    between atoms: _355  and  _356
REMARK  148  A    between atoms: _361  and  _363
REMARK  149  A    between atoms: _363  and  _364
REMARK  150  A    between atoms: _363  and  _366
REMARK  151  A    between atoms: _366  and  _367
REMARK  152  A    between atoms: _370  and  _372
REMARK  153  A    between atoms: _372  and  _373
REMARK  154  A    between atoms: _376  and  _378
REMARK  155  A    between atoms: _378  and  _379
REMARK  156  A    between atoms: _378  and  _381
REMARK  157  A    between atoms: _384  and  _386
REMARK  158  A    between atoms: _386  and  _387
REMARK  159  A    between atoms: _386  and  _389
REMARK  160  A    between atoms: _389  and  _390
REMARK  161  A    between atoms: _393  and  _395
REMARK  162  A    between atoms: _395  and  _396
REMARK  163  A    between atoms: _399  and  _401
REMARK  164  A    between atoms: _401  and  _402
REMARK  165  A    between atoms: _401  and  _404
REMARK  166  A    between atoms: _404  and  _405
REMARK  167  A    between atoms: _408  and  _410
REMARK  168  A    between atoms: _410  and  _411
REMARK  169  A    between atoms: _410  and  _413
REMARK  170  A    between atoms: _413  and  _414
REMARK  171  A    between atoms: _414  and  _415
REMARK  172  A    between atoms: _417  and  _419
REMARK  173  A    between atoms: _419  and  _420
REMARK  174  A    between atoms: _419  and  _422
REMARK  175  A    between atoms: _422  and  _423
REMARK  176  A    between atoms: _429  and  _431
REMARK  177  A    between atoms: _431  and  _432
REMARK  178  A    between atoms: _431  and  _434
REMARK  179  A    between atoms: _434  and  _435
REMARK  180  A    between atoms: _438  and  _440
REMARK  181  A    between atoms: _440  and  _441
REMARK  182  A    between atoms: _440  and  _443
REMARK  183  A    between atoms: _443  and  _444
REMARK  184  A    between atoms: _444  and  _445
REMARK  185  A    between atoms: _445  and  _446
REMARK  186  A    between atoms: _455  and  _457
REMARK  187  A    between atoms: _457  and  _458
REMARK  188  A    between atoms: _457  and  _460
REMARK  189  A    between atoms: _460  and  _461
REMARK  190  A    between atoms: _464  and  _466
REMARK  191  A    between atoms: _466  and  _467
REMARK  192  A    between atoms: _466  and  _469
REMARK  193  A    between atoms: _471  and  _473
REMARK  194  A    between atoms: _473  and  _474
REMARK  195  A    between atoms: _473  and  _476
REMARK  196  A    between atoms: _476  and  _477
REMARK  197  A    between atoms: _479  and  _481
REMARK  198  A    between atoms: _481  and  _482
REMARK  199  A    between atoms: _481  and  _484
REMARK  200  A    between atoms: _487  and  _489
REMARK  201  A    between atoms: _489  and  _490
REMARK  202  A    between atoms: _489  and  _492
REMARK  203  A    between atoms: _492  and  _493
REMARK  204  A    between atoms: _496  and  _498
REMARK  205  A    between atoms: _498  and  _499
REMARK  206  A    between atoms: _498  and  _501
REMARK  207  A    between atoms: _501  and  _502
REMARK  208  A    between atoms: _508  and  _510
REMARK  209  A    between atoms: _510  and  _511
REMARK  210  A    between atoms: _510  and  _513
REMARK  211  A    between atoms: _513  and  _514
REMARK  212  A    between atoms: _514  and  _515
REMARK  213  A    between atoms: _517  and  _519
REMARK  214  A    between atoms: _519  and  _520
REMARK  215  A    between atoms: _519  and  _522
REMARK  216  A    between atoms: _522  and  _523
REMARK  217  A    between atoms: _523  and  _524
REMARK  218  A    between atoms: _524  and  _525
REMARK  219  A    between atoms: _534  and  _536
REMARK  220  A    between atoms: _536  and  _537
REMARK  221  A    between atoms: _540  and  _542
REMARK  222  A    between atoms: _542  and  _543
REMARK  223  A    between atoms: _545  and  _547
REMARK  224  A    between atoms: _547  and  _548
REMARK  225  A    between atoms: _547  and  _550
REMARK  226  A    between atoms: _550  and  _551
REMARK  227  A    between atoms: _554  and  _556
REMARK  228  A    between atoms: _556  and  _557
REMARK  229  A    between atoms: _559  and  _561
REMARK  230  A    between atoms: _561  and  _562
REMARK  231  A    between atoms: _561  and  _564
REMARK  232  A    between atoms: _564  and  _565
REMARK  233  A    between atoms: _568  and  _570
REMARK  234  A    between atoms: _570  and  _571
REMARK  235  A    between atoms: _570  and  _573
REMARK  236  A    between atoms: _573  and  _574
REMARK  237  A    between atoms: _580  and  _582
REMARK  238  A    between atoms: _582  and  _583
REMARK  239  A    between atoms: _582  and  _585
REMARK  240  A    between atoms: _585  and  _586
REMARK  241  A    between atoms: _589  and  _591
REMARK  242  A    between atoms: _591  and  _592
REMARK  243  A    between atoms: _595  and  _597
REMARK  244  A    between atoms: _597  and  _598
REMARK  245  A    between atoms: _597  and  _600
REMARK  246  A    between atoms: _600  and  _601
REMARK  247  A    between atoms: _607  and  _609
REMARK  248  A    between atoms: _609  and  _610
REMARK  249  A    between atoms: _609  and  _612
REMARK  250  A    between atoms: _612  and  _613
REMARK  251  A    between atoms: _613  and  _614
REMARK  252  A    between atoms: _616  and  _618
REMARK  253  A    between atoms: _618  and  _619
REMARK  254  A    between atoms: _618  and  _621
REMARK  255  A    between atoms: _621  and  _622
REMARK  256  A    between atoms: _632  and  _634
REMARK  257  A    between atoms: _634  and  _635
REMARK  258  A    between atoms: _634  and  _637
REMARK  259  A    between atoms: _637  and  _638
REMARK  260  A    between atoms: _641  and  _643
REMARK  261  A    between atoms: _643  and  _644
REMARK  262  A    between atoms: _643  and  _646
REMARK  263  A    between atoms: _646  and  _647
REMARK                            x       y       z     vdW  Elec       q    Type
REMARK                         _______ _______ _______ _____ _____    ______ ____
ROOT
ATOM      1  CA  ARG A   1     -16.262  14.996 -12.425  0.00  0.00    +0.145 C 
ENDROOT
BRANCH   1   2
ATOM      2  C   ARG A   1     -15.178  14.210 -13.134  0.00  0.00    +0.238 C 
ATOM      3  O   ARG A   1     -14.568  13.309 -12.535  0.00  0.00    -0.274 OA
ATOM      4  N   HIS A   2     -15.023  14.459 -14.434  0.00  0.00    -0.298 N 
ATOM      5  H   HIS A   2     -15.573  15.215 -14.890  0.00  0.00    +0.150 HD
BRANCH   4   6
ATOM      6  CA  HIS A   2     -14.098  13.683 -15.199  0.00  0.00    +0.143 C 
BRANCH   6   7
ATOM      7  C   HIS A   2     -12.640  14.006 -14.792  0.00  0.00    +0.227 C 
ATOM      8  O   HIS A   2     -11.799  13.156 -14.805  0.00  0.00    -0.286 OA
ENDBRANCH   6   7
BRANCH   6   9
ATOM      9  CB  HIS A   2     -14.290  13.892 -16.709  0.00  0.00    +0.075 C 
BRANCH   9  10
ATOM     10  CG  HIS A   2     -13.044  13.627 -17.483  0.00  0.00    +0.082 A 
ATOM     11  ND1 HIS A   2     -12.146  14.626 -17.796  0.00  0.00    -0.227 NA
ATOM     12  CE1 HIS A   2     -11.103  14.095 -18.411  0.00  0.00    +0.199 A 
ATOM     13  NE2 HIS A   2     -11.296  12.792 -18.515  0.00  0.00    -0.221 NA
ATOM     14  CD2 HIS A   2     -12.487  12.468 -17.908  0.00  0.00    +0.115 A 
ENDBRANCH   9  10
ENDBRANCH   6   9
ENDBRANCH   4   6
ENDBRANCH   1   2
BRANCH   1  15
ATOM     15  N   ARG A   1     -16.340  16.377 -12.880  0.00  0.00    -0.238 NA
ATOM     16  H   ARG A   1     -17.213  16.723 -13.327  0.00  0.00    +0.142 HD
ENDBRANCH   1  15
BRANCH   1  17
ATOM     17  CB  ARG A   1     -17.611  14.268 -12.585  0.00  0.00    +0.030 C 
BRANCH  17  18
ATOM     18  CG  ARG A   1     -18.795  15.009 -11.882  0.00  0.00    +0.045 C 
BRANCH  18  19
ATOM     19  CD  ARG A   1     -20.140  14.289 -12.000  0.00  0.00    +0.174 C 
BRANCH  19  20
ATOM     20  NE  ARG A   1     -21.231  15.183 -11.542  0.00  0.00    -0.265 N 
ATOM     21  HE  ARG A   1     -20.956  16.092 -11.118  0.00  0.00    +0.259 HD
ATOM     22  CZ  ARG A   1     -22.552  14.916 -11.629  0.00  0.00    +0.342 C 
ATOM     23  NH2 ARG A   1     -23.441  15.807 -11.197  0.00  0.00    -0.292 N 
ATOM     24 HH21 ARG A   1     -23.119  16.709 -10.792  0.00  0.00    +0.255 HD
ATOM     25 HH22 ARG A   1     -24.458  15.601 -11.264  0.00  0.00    +0.255 HD
ATOM     26  NH1 ARG A   1     -22.996  13.800 -12.187  0.00  0.00    -0.292 N 
ATOM     27 HH11 ARG A   1     -24.018  13.617 -12.242  0.00  0.00    +0.255 HD
ATOM     28 HH12 ARG A   1     -22.322  13.106 -12.570  0.00  0.00    +0.255 HD
ENDBRANCH  19  20
ENDBRANCH  18  19
ENDBRANCH  17  18
ENDBRANCH   1  17
TORSDOF 10
REMARK  Name = ../refined-set-2016/3vw1/3vw1_pocket.pdb
REMARK  263 active torsions:
REMARK  status: ('A' for Active; 'I' for Inactive)
REMARK    1  A    between atoms: _1  and  _3
REMARK    2  A    between atoms: _3  and  _4
REMARK    3  A    between atoms: _3  and  _6
REMARK    4  A    between atoms: _6  and  _7
REMARK    5  A    between atoms: _12  and  _13
REMARK    6  A    between atoms: _15  and  _17
REMARK    7  A    between atoms: _17  and  _18
REMARK    8  A    between atoms: _17  and  _20
REMARK    9  A    between atoms: _20  and  _21
REMARK   10  A    between atoms: _24  and  _26
REMARK   11  A    between atoms: _26  and  _27
REMARK   12  A    between atoms: _26  and  _29
REMARK   13  A    between atoms: _29  and  _30
REMARK   14  A    between atoms: _30  and  _31
REMARK   15  A    between atoms: _31  and  _32
REMARK   16  A    between atoms: _32  and  _33
REMARK   17  A    between atoms: _37  and  _39
REMARK   18  A    between atoms: _39  and  _40
REMARK   19  A    between atoms: _39  and  _42
REMARK   20  A    between atoms: _42  and  _43
REMARK   21  A    between atoms: _43  and  _44
REMARK   22  A    between atoms: _49  and  _51
REMARK   23  A    between atoms: _51  and  _52
REMARK   24  A    between atoms: _51  and  _54
REMARK   25  A    between atoms: _54  and  _55
REMARK   26  A    between atoms: _58  and  _60
REMARK   27  A    between atoms: _60  and  _61
REMARK   28  A    between atoms: _60  and  _63
REMARK   29  A    between atoms: _63  and  _64
REMARK   30  A    between atoms: _67  and  _69
REMARK   31  A    between atoms: _69  and  _70
REMARK   32  A    between atoms: _69  and  _72
REMARK   33  A    between atoms: _74  and  _76
REMARK   34  A    between atoms: _76  and  _77
REMARK   35  A    between atoms: _76  and  _79
REMARK   36  A    between atoms: _79  and  _80
REMARK   37  A    between atoms: _80  and  _81
REMARK   38  A    between atoms: _86  and  _88
REMARK   39  A    between atoms: _88  and  _89
REMARK   40  A    between atoms: _88  and  _91
REMARK   41  A    between atoms: _91  and  _92
REMARK   42  A    between atoms: _94  and  _96
REMARK   43  A    between atoms: _96  and  _97
REMARK   44  A    between atoms: _96  and  _99
REMARK   45  A    between atoms: _99  and  _100
REMARK   46  A    between atoms: _100  and  _101
REMARK   47  A    between atoms: _103  and  _105
REMARK   48  A    between atoms: _105  and  _106
REMARK   49  A    between atoms: _105  and  _108
REMARK   50  A    between atoms: _108  and  _109
REMARK   51  A    between atoms: _112  and  _114
REMARK   52  A    between atoms: _114  and  _115
REMARK   53  A    between atoms: _114  and  _117
REMARK   54  A    between atoms: _117  and  _118
REMARK   55  A    between atoms: _118  and  _119
REMARK   56  A    between atoms: _121  and  _123
REMARK   57  A    between atoms: _123  and  _124
REMARK   58  A    between atoms: _123  and  _126
REMARK   59  A    between atoms: _126  and  _127
REMARK   60  A    between atoms: _127  and  _128
REMARK   61  A    between atoms: _131  and  _133
REMARK   62  A    between atoms: _133  and  _134
REMARK   63  A    between atoms: _133  and  _136
REMARK   64  A    between atoms: _136  and  _137
REMARK   65  A    between atoms: _140  and  _142
REMARK   66  A    between atoms: _142  and  _143
REMARK   67  A    between atoms: _146  and  _148
REMARK   68  A    between atoms: _148  and  _149
REMARK   69  A    between atoms: _148  and  _151
REMARK   70  A    between atoms: _151  and  _152
REMARK   71  A    between atoms: _152  and  _153
REMARK   72  A    between atoms: _155  and  _157
REMARK   73  A    between atoms: _157  and  _158
REMARK   74  A    between atoms: _157  and  _160
REMARK   75  A    between atoms: _160  and  _161
REMARK   76  A    between atoms: _164  and  _166
REMARK   77  A    between atoms: _166  and  _167
REMARK   78  A    between atoms: _166  and  _169
REMARK   79  A    between atoms: _169  and  _170
REMARK   80  A    between atoms: _170  and  _171
REMARK   81  A    between atoms: _171  and  _172
REMARK   82  A    between atoms: _181  and  _183
REMARK   83  A    between atoms: _183  and  _184
REMARK   84  A    between atoms: _183  and  _186
REMARK   85  A    between atoms: _186  and  _187
REMARK   86  A    between atoms: _193  and  _195
REMARK   87  A    between atoms: _195  and  _196
REMARK   88  A    between atoms: _195  and  _198
REMARK   89  A    between atoms: _198  and  _199
REMARK   90  A    between atoms: _202  and  _204
REMARK   91  A    between atoms: _204  and  _205
REMARK   92  A    between atoms: _204  and  _207
REMARK   93  A    between atoms: _207  and  _208
REMARK   94  A    between atoms: _218  and  _220
REMARK   95  A    between atoms: _220  and  _221
REMARK   96  A    between atoms: _220  and  _223
REMARK   97  A    between atoms: _223  and  _224
REMARK   98  A    between atoms: _229  and  _231
REMARK   99  A    between atoms: _231  and  _232
REMARK  100  A    between atoms: _231  and  _234
REMARK  101  A    between atoms: _234  and  _235
REMARK  102  A    between atoms: _237  and  _239
REMARK  103  A    between atoms: _239  and  _240
REMARK  104  A    between atoms: _239  and  _242
REMARK  105  A    between atoms: _242  and  _243
REMARK  106  A    between atoms: _248  and  _249
REMARK  107  A    between atoms: _251  and  _253
REMARK  108  A    between atoms: _253  and  _254
REMARK  109  A    between atoms: _253  and  _256
REMARK  110  A    between atoms: _256  and  _257
REMARK  111  A    between atoms: _260  and  _262
REMARK  112  A    between atoms: _262  and  _263
REMARK  113  A    between atoms: _262  and  _265
REMARK  114  A    between atoms: _265  and  _266
REMARK  115  A    between atoms: _268  and  _270
REMARK  116  A    between atoms: _270  and  _271
REMARK  117  A    between atoms: _270  and  _273
REMARK  118  A    between atoms: _273  and  _274
REMARK  119  A    between atoms: _284  and  _286
REMARK  120  A    between atoms: _286  and  _287
REMARK  121  A    between atoms: _289  and  _291
REMARK  122  A    between atoms: _291  and  _292
REMARK  123  A    between atoms: _291  and  _294
REMARK  124  A    between atoms: _294  and  _295
REMARK  125  A    between atoms: _295  and  _296
REMARK  126  A    between atoms: _296  and  _297
REMARK  127  A    between atoms: _306  and  _308
REMARK  128  A    between atoms: _308  and  _309
REMARK  129  A    between atoms: _308  and  _311
REMARK  130  A    between atoms: _311  and  _312
REMARK  131  A    between atoms: _317  and  _319
REMARK  132  A    between atoms: _319  and  _320
REMARK  133  A    between atoms: _323  and  _325
REMARK  134  A    between atoms: _325  and  _326
REMARK  135  A    between atoms: _325  and  _328
REMARK  136  A    between atoms: _328  and  _329
REMARK  137  A    between atoms: _332  and  _334
REMARK  138  A    between atoms: _334  and  _335
REMARK  139  A    between atoms: _334  and  _337
REMARK  140  A    between atoms: _337  and  _338
REMARK  141  A    between atoms: _338  and  _339
REMARK  142  A    between atoms: _339  and  _340
REMARK  143  A    between atoms: _349  and  _351
REMARK  144  A    between atoms: _351  and  _352
REMARK  145  A    between atoms: _351  and  _354
REMARK  146  A    between atoms: _354  and  _355
REMARK  147  A    between atoms: _355  and  _356
REMARK  148  A    between atoms: _361  and  _363
REMARK  149  A    between atoms: _363  and  _364
REMARK  150  A    between atoms: _363  and  _366
REMARK  151  A    between atoms: _366  and  _367
REMARK  152  A    between atoms: _370  and  _372
REMARK  153  A    between atoms: _372  and  _373
REMARK  154  A    between atoms: _376  and  _378
REMARK  155  A    between atoms: _378  and  _379
REMARK  156  A    between atoms: _378  and  _381
REMARK  157  A    between atoms: _384  and  _386
REMARK  158  A    between atoms: _386  and  _387
REMARK  159  A    between atoms: _386  and  _389
REMARK  160  A    between atoms: _389  and  _390
REMARK  161  A    between atoms: _393  and  _395
REMARK  162  A    between atoms: _395  and  _396
REMARK  163  A    between atoms: _399  and  _401
REMARK  164  A    between atoms: _401  and  _402
REMARK  165  A    between atoms: _401  and  _404
REMARK  166  A    between atoms: _404  and  _405
REMARK  167  A    between atoms: _408  and  _410
REMARK  168  A    between atoms: _410  and  _411
REMARK  169  A    between atoms: _410  and  _413
REMARK  170  A    between atoms: _413  and  _414
REMARK  171  A    between atoms: _414  and  _415
REMARK  172  A    between atoms: _417  and  _419
REMARK  173  A    between atoms: _419  and  _420
REMARK  174  A    between atoms: _419  and  _422
REMARK  175  A    between atoms: _422  and  _423
REMARK  176  A    between atoms: _429  and  _431
REMARK  177  A    between atoms: _431  and  _432
REMARK  178  A    between atoms: _431  and  _434
REMARK  179  A    between atoms: _434  and  _435
REMARK  180  A    between atoms: _438  and  _440
REMARK  181  A    between atoms: _440  and  _441
REMARK  182  A    between atoms: _440  and  _443
REMARK  183  A    between atoms: _443  and  _444
REMARK  184  A    between atoms: _444  and  _445
REMARK  185  A    between atoms: _445  and  _446
REMARK  186  A    between atoms: _455  and  _457
REMARK  187  A    between atoms: _457  and  _458
REMARK  188  A    between atoms: _457  and  _460
REMARK  189  A    between atoms: _460  and  _461
REMARK  190  A    between atoms: _464  and  _466
REMARK  191  A    between atoms: _466  and  _467
REMARK  192  A    between atoms: _466  and  _469
REMARK  193  A    between atoms: _471  and  _473
REMARK  194  A    between atoms: _473  and  _474
REMARK  195  A    between atoms: _473  and  _476
REMARK  196  A    between atoms: _476  and  _477
REMARK  197  A    between atoms: _479  and  _481
REMARK  198  A    between atoms: _481  and  _482
REMARK  199  A    between atoms: _481  and  _484
REMARK  200  A    between atoms: _487  and  _489
REMARK  201  A    between atoms: _489  and  _490
REMARK  202  A    between atoms: _489  and  _492
REMARK  203  A    between atoms: _492  and  _493
REMARK  204  A    between atoms: _496  and  _498
REMARK  205  A    between atoms: _498  and  _499
REMARK  206  A    between atoms: _498  and  _501
REMARK  207  A    between atoms: _501  and  _502
REMARK  208  A    between atoms: _508  and  _510
REMARK  209  A    between atoms: _510  and  _511
REMARK  210  A    between atoms: _510  and  _513
REMARK  211  A    between atoms: _513  and  _514
REMARK  212  A    between atoms: _514  and  _515
REMARK  213  A    between atoms: _517  and  _519
REMARK  214  A    between atoms: _519  and  _520
REMARK  215  A    between atoms: _519  and  _522
REMARK  216  A    between atoms: _522  and  _523
REMARK  217  A    between atoms: _523  and  _524
REMARK  218  A    between atoms: _524  and  _525
REMARK  219  A    between atoms: _534  and  _536
REMARK  220  A    between atoms: _536  and  _537
REMARK  221  A    between atoms: _540  and  _542
REMARK  222  A    between atoms: _542  and  _543
REMARK  223  A    between atoms: _545  and  _547
REMARK  224  A    between atoms: _547  and  _548
REMARK  225  A    between atoms: _547  and  _550
REMARK  226  A    between atoms: _550  and  _551
REMARK  227  A    between atoms: _554  and  _556
REMARK  228  A    between atoms: _556  and  _557
REMARK  229  A    between atoms: _559  and  _561
REMARK  230  A    between atoms: _561  and  _562
REMARK  231  A    between atoms: _561  and  _564
REMARK  232  A    between atoms: _564  and  _565
REMARK  233  A    between atoms: _568  and  _570
REMARK  234  A    between atoms: _570  and  _571
REMARK  235  A    between atoms: _570  and  _573
REMARK  236  A    between atoms: _573  and  _574
REMARK  237  A    between atoms: _580  and  _582
REMARK  238  A    between atoms: _582  and  _583
REMARK  239  A    between atoms: _582  and  _585
REMARK  240  A    between atoms: _585  and  _586
REMARK  241  A    between atoms: _589  and  _591
REMARK  242  A    between atoms: _591  and  _592
REMARK  243  A    between atoms: _595  and  _597
REMARK  244  A    between atoms: _597  and  _598
REMARK  245  A    between atoms: _597  and  _600
REMARK  246  A    between atoms: _600  and  _601
REMARK  247  A    between atoms: _607  and  _609
REMARK  248  A    between atoms: _609  and  _610
REMARK  249  A    between atoms: _609  and  _612
REMARK  250  A    between atoms: _612  and  _613
REMARK  251  A    between atoms: _613  and  _614
REMARK  252  A    between atoms: _616  and  _618
REMARK  253  A    between atoms: _618  and  _619
REMARK  254  A    between atoms: _618  and  _621
REMARK  255  A    between atoms: _621  and  _622
REMARK  256  A    between atoms: _632  and  _634
REMARK  257  A    between atoms: _634  and  _635
REMARK  258  A    between atoms: _634  and  _637
REMARK  259  A    between atoms: _637  and  _638
REMARK  260  A    between atoms: _641  and  _643
REMARK  261  A    between atoms: _643  and  _644
REMARK  262  A    between atoms: _643  and  _646
REMARK  263  A    between atoms: _646  and  _647
REMARK                            x       y       z     vdW  Elec       q    Type
REMARK                         _______ _______ _______ _____ _____    ______ ____
ROOT
ATOM      1  C   ARG A   3      -7.458  11.502 -12.416  0.00  0.00    +0.241 C 
ATOM      2  N   GLN A   4      -7.653  12.626 -11.745  0.00  0.00    -0.297 N 
ATOM      3  H   GLN A   4      -8.422  13.262 -12.036  0.00  0.00    +0.150 HD
ATOM      4  O   ARG A   3      -6.514  10.787 -12.231  0.00  0.00    -0.273 OA
ENDROOT
BRANCH   2   5
ATOM      5  CA  GLN A   4      -6.829  12.991 -10.624  0.00  0.00    +0.149 C 
BRANCH   5   6
ATOM      6  C   GLN A   4      -6.812  11.888  -9.499  0.00  0.00    +0.241 C 
ATOM      7  O   GLN A   4      -5.763  11.592  -8.938  0.00  0.00    -0.273 OA
ATOM      8  N   LEU A   5      -7.961  11.287  -9.185  0.00  0.00    -0.297 N 
ATOM      9  H   LEU A   5      -8.819  11.514  -9.728  0.00  0.00    +0.150 HD
BRANCH   8  10
ATOM     10  CA  LEU A   5      -8.041  10.318  -8.097  0.00  0.00    +0.149 C 
BRANCH  10  11
ATOM     11  C   LEU A   5      -7.339   9.041  -8.518  0.00  0.00    +0.241 C 
ATOM     12  O   LEU A   5      -6.754   8.328  -7.693  0.00  0.00    -0.273 OA
ATOM     13  N   ALA A   6      -7.387   8.749  -9.813  0.00  0.00    -0.297 N 
ATOM     14  H   ALA A   6      -7.861   9.390 -10.481  0.00  0.00    +0.150 HD
BRANCH  13  15
ATOM     15  CA  ALA A   6      -6.768   7.521 -10.283  0.00  0.00    +0.149 C 
ATOM     16  CB  ALA A   6      -7.375   7.071 -11.623  0.00  0.00    +0.031 C 
BRANCH  15  17
ATOM     17  C   ALA A   6      -5.218   7.641 -10.362  0.00  0.00    +0.241 C 
ATOM     18  N   VAL A   7      -4.653   8.844 -10.302  0.00  0.00    -0.298 N 
ATOM     19  H   VAL A   7      -5.249   9.696 -10.274  0.00  0.00    +0.150 HD
ATOM     20  O   ALA A   6      -4.547   6.621 -10.429  0.00  0.00    -0.273 OA
BRANCH  18  21
ATOM     21  CA  VAL A   7      -3.199   8.971 -10.276  0.00  0.00    +0.137 C 
BRANCH  21  22
ATOM     22  CB  VAL A   7      -2.669   9.999 -11.247  0.00  0.00    +0.026 C 
ATOM     23  CG2 VAL A   7      -3.170  11.363 -10.933  0.00  0.00    +0.002 C 
ATOM     24  CG1 VAL A   7      -2.887   9.582 -12.647  0.00  0.00    +0.002 C 
ENDBRANCH  21  22
BRANCH  21  25
ATOM     25  C   VAL A   7      -2.656   9.377  -8.916  0.00  0.00    +0.227 C 
ATOM     26  O   VAL A   7      -1.680  10.094  -8.828  0.00  0.00    -0.286 OA
ENDBRANCH  21  25
ENDBRANCH  18  21
ENDBRANCH  15  17
ENDBRANCH  13  15
ENDBRANCH  10  11
BRANCH  10  27
ATOM     27  CB  LEU A   5      -9.493  10.025  -7.733  0.00  0.00    +0.029 C 
BRANCH  27  28
ATOM     28  CG  LEU A   5     -10.234  10.833  -6.685  0.00  0.00    +0.002 C 
ATOM     29  CD2 LEU A   5     -11.699  10.510  -6.808  0.00  0.00    +0.000 C 
ATOM     30  CD1 LEU A   5     -10.056  12.311  -6.875  0.00  0.00    +0.000 C 
ENDBRANCH  27  28
ENDBRANCH  10  27
ENDBRANCH   8  10
ENDBRANCH   5   6
BRANCH   5  31
ATOM     31  CB  GLN A   4      -7.338  14.315 -10.102  0.00  0.00    +0.039 C 
BRANCH  31  32
ATOM     32  CG  GLN A   4      -6.282  15.162  -9.595  0.00  0.00    +0.087 C 
BRANCH  32  33
ATOM     33  CD  GLN A   4      -5.256  15.508 -10.654  0.00  0.00    +0.219 C 
ATOM     34  NE2 GLN A   4      -4.011  15.131 -10.403  0.00  0.00    -0.329 N 
ATOM     35 HE21 GLN A   4      -3.792  14.607  -9.532  0.00  0.00    +0.145 HD
ATOM     36 HE22 GLN A   4      -3.253  15.359 -11.077  0.00  0.00    +0.145 HD
ATOM     37  OE1 GLN A   4      -5.573  16.128 -11.665  0.00  0.00    -0.275 OA
ENDBRANCH  32  33
ENDBRANCH  31  32
ENDBRANCH   5  31
ENDBRANCH   2   5
BRANCH   1  38
ATOM     38  CA  ARG A   3      -8.492  11.164 -13.454  0.00  0.00    +0.149 C 
BRANCH  38  41
ATOM     39  C   ILE A   2     -10.341  10.656 -11.927  0.00  0.00    +0.241 C 
ATOM     40  O   ILE A   2      -9.814   9.580 -11.568  0.00  0.00    -0.273 OA
ATOM     41  N   ARG A   3      -9.802  11.468 -12.863  0.00  0.00    -0.297 N 
ATOM     42  H   ARG A   3     -10.320  12.317 -13.168  0.00  0.00    +0.150 HD
BRANCH  39  43
ATOM     43  CA  ILE A   2     -11.733  11.043 -11.374  0.00  0.00    +0.148 C 
BRANCH  43  46
ATOM     44  C   ALA A   1     -11.291  13.261 -10.515  0.00  0.00    +0.238 C 
ATOM     45  O   ALA A   1     -10.354  12.857  -9.785  0.00  0.00    -0.274 OA
ATOM     46  N   ILE A   2     -11.954  12.480 -11.364  0.00  0.00    -0.297 N 
ATOM     47  H   ILE A   2     -12.636  12.901 -12.026  0.00  0.00    +0.150 HD
BRANCH  44  48
ATOM     48  CA  ALA A   1     -11.711  14.678 -10.493  0.00  0.00    +0.145 C 
ATOM     49  CB  ALA A   1     -13.025  14.813  -9.780  0.00  0.00    +0.028 C 
BRANCH  48  50
ATOM     50  N   ALA A   1     -11.805  15.179 -11.863  0.00  0.00    -0.238 NA
ATOM     51  H   ALA A   1     -12.733  15.480 -12.223  0.00  0.00    +0.142 HD
ENDBRANCH  48  50
ENDBRANCH  44  48
ENDBRANCH  43  46
BRANCH  43  52
ATOM     52  CB  ILE A   2     -12.850  10.287 -12.152  0.00  0.00    +0.027 C 
ATOM     53  CG2 ILE A   2     -12.678  10.435 -13.649  0.00  0.00    +0.002 C 
BRANCH  52  54
ATOM     54  CG1 ILE A   2     -12.875   8.789 -11.784  0.00  0.00    +0.002 C 
ATOM     55  CD1 ILE A   2     -14.125   8.055 -12.249  0.00  0.00    +0.000 C 
ENDBRANCH  52  54
ENDBRANCH  43  52
ENDBRANCH  39  43
ENDBRANCH  38  41
BRANCH  38  56
ATOM     56  CB  ARG A   3      -8.197  11.990 -14.701  0.00  0.00    +0.033 C 
BRANCH  56  57
ATOM     57  CG  ARG A   3      -8.836  11.524 -16.000  0.00  0.00    +0.045 C 
BRANCH  57  58
ATOM     58  CD  ARG A   3      -7.959  11.954 -17.169  0.00  0.00    +0.174 C 
BRANCH  58  59
ATOM     59  NE  ARG A   3      -6.829  11.072 -17.166  0.00  0.00    -0.265 N 
ATOM     60  HE  ARG A   3      -6.875  10.264 -16.513  0.00  0.00    +0.259 HD
ATOM     61  CZ  ARG A   3      -5.744  11.171 -17.895  0.00  0.00    +0.342 C 
ATOM     62  NH2 ARG A   3      -4.808  10.218 -17.747  0.00  0.00    -0.292 N 
ATOM     63 HH21 ARG A   3      -4.960   9.440 -17.073  0.00  0.00    +0.255 HD
ATOM     64 HH22 ARG A   3      -3.932  10.258 -18.306  0.00  0.00    +0.255 HD
ATOM     65  NH1 ARG A   3      -5.603  12.171 -18.764  0.00  0.00    -0.292 N 
ATOM     66 HH11 ARG A   3      -6.357  12.880 -18.868  0.00  0.00    +0.255 HD
ATOM     67 HH12 ARG A   3      -4.739  12.243 -19.339  0.00  0.00    +0.255 HD
ENDBRANCH  58  59
ENDBRANCH  57  58
ENDBRANCH  56  57
ENDBRANCH  38  56
ENDBRANCH   1  38
TORSDOF 26
REMARK  Name = ../refined-set-2016/3vw1/3vw1_pocket.pdb
REMARK  263 active torsions:
REMARK  status: ('A' for Active; 'I' for Inactive)
REMARK    1  A    between atoms: _1  and  _3
REMARK    2  A    between atoms: _3  and  _4
REMARK    3  A    between atoms: _3  and  _6
REMARK    4  A    between atoms: _6  and  _7
REMARK    5  A    between atoms: _12  and  _13
REMARK    6  A    between atoms: _15  and  _17
REMARK    7  A    between atoms: _17  and  _18
REMARK    8  A    between atoms: _17  and  _20
REMARK    9  A    between atoms: _20  and  _21
REMARK   10  A    between atoms: _24  and  _26
REMARK   11  A    between atoms: _26  and  _27
REMARK   12  A    between atoms: _26  and  _29
REMARK   13  A    between atoms: _29  and  _30
REMARK   14  A    between atoms: _30  and  _31
REMARK   15  A    between atoms: _31  and  _32
REMARK   16  A    between atoms: _32  and  _33
REMARK   17  A    between atoms: _37  and  _39
REMARK   18  A    between atoms: _39  and  _40
REMARK   19  A    between atoms: _39  and  _42
REMARK   20  A    between atoms: _42  and  _43
REMARK   21  A    between atoms: _43  and  _44
REMARK   22  A    between atoms: _49  and  _51
REMARK   23  A    between atoms: _51  and  _52
REMARK   24  A    between atoms: _51  and  _54
REMARK   25  A    between atoms: _54  and  _55
REMARK   26  A    between atoms: _58  and  _60
REMARK   27  A    between atoms: _60  and  _61
REMARK   28  A    between atoms: _60  and  _63
REMARK   29  A    between atoms: _63  and  _64
REMARK   30  A    between atoms: _67  and  _69
REMARK   31  A    between atoms: _69  and  _70
REMARK   32  A    between atoms: _69  and  _72
REMARK   33  A    between atoms: _74  and  _76
REMARK   34  A    between atoms: _76  and  _77
REMARK   35  A    between atoms: _76  and  _79
REMARK   36  A    between atoms: _79  and  _80
REMARK   37  A    between atoms: _80  and  _81
REMARK   38  A    between atoms: _86  and  _88
REMARK   39  A    between atoms: _88  and  _89
REMARK   40  A    between atoms: _88  and  _91
REMARK   41  A    between atoms: _91  and  _92
REMARK   42  A    between atoms: _94  and  _96
REMARK   43  A    between atoms: _96  and  _97
REMARK   44  A    between atoms: _96  and  _99
REMARK   45  A    between atoms: _99  and  _100
REMARK   46  A    between atoms: _100  and  _101
REMARK   47  A    between atoms: _103  and  _105
REMARK   48  A    between atoms: _105  and  _106
REMARK   49  A    between atoms: _105  and  _108
REMARK   50  A    between atoms: _108  and  _109
REMARK   51  A    between atoms: _112  and  _114
REMARK   52  A    between atoms: _114  and  _115
REMARK   53  A    between atoms: _114  and  _117
REMARK   54  A    between atoms: _117  and  _118
REMARK   55  A    between atoms: _118  and  _119
REMARK   56  A    between atoms: _121  and  _123
REMARK   57  A    between atoms: _123  and  _124
REMARK   58  A    between atoms: _123  and  _126
REMARK   59  A    between atoms: _126  and  _127
REMARK   60  A    between atoms: _127  and  _128
REMARK   61  A    between atoms: _131  and  _133
REMARK   62  A    between atoms: _133  and  _134
REMARK   63  A    between atoms: _133  and  _136
REMARK   64  A    between atoms: _136  and  _137
REMARK   65  A    between atoms: _140  and  _142
REMARK   66  A    between atoms: _142  and  _143
REMARK   67  A    between atoms: _146  and  _148
REMARK   68  A    between atoms: _148  and  _149
REMARK   69  A    between atoms: _148  and  _151
REMARK   70  A    between atoms: _151  and  _152
REMARK   71  A    between atoms: _152  and  _153
REMARK   72  A    between atoms: _155  and  _157
REMARK   73  A    between atoms: _157  and  _158
REMARK   74  A    between atoms: _157  and  _160
REMARK   75  A    between atoms: _160  and  _161
REMARK   76  A    between atoms: _164  and  _166
REMARK   77  A    between atoms: _166  and  _167
REMARK   78  A    between atoms: _166  and  _169
REMARK   79  A    between atoms: _169  and  _170
REMARK   80  A    between atoms: _170  and  _171
REMARK   81  A    between atoms: _171  and  _172
REMARK   82  A    between atoms: _181  and  _183
REMARK   83  A    between atoms: _183  and  _184
REMARK   84  A    between atoms: _183  and  _186
REMARK   85  A    between atoms: _186  and  _187
REMARK   86  A    between atoms: _193  and  _195
REMARK   87  A    between atoms: _195  and  _196
REMARK   88  A    between atoms: _195  and  _198
REMARK   89  A    between atoms: _198  and  _199
REMARK   90  A    between atoms: _202  and  _204
REMARK   91  A    between atoms: _204  and  _205
REMARK   92  A    between atoms: _204  and  _207
REMARK   93  A    between atoms: _207  and  _208
REMARK   94  A    between atoms: _218  and  _220
REMARK   95  A    between atoms: _220  and  _221
REMARK   96  A    between atoms: _220  and  _223
REMARK   97  A    between atoms: _223  and  _224
REMARK   98  A    between atoms: _229  and  _231
REMARK   99  A    between atoms: _231  and  _232
REMARK  100  A    between atoms: _231  and  _234
REMARK  101  A    between atoms: _234  and  _235
REMARK  102  A    between atoms: _237  and  _239
REMARK  103  A    between atoms: _239  and  _240
REMARK  104  A    between atoms: _239  and  _242
REMARK  105  A    between atoms: _242  and  _243
REMARK  106  A    between atoms: _248  and  _249
REMARK  107  A    between atoms: _251  and  _253
REMARK  108  A    between atoms: _253  and  _254
REMARK  109  A    between atoms: _253  and  _256
REMARK  110  A    between atoms: _256  and  _257
REMARK  111  A    between atoms: _260  and  _262
REMARK  112  A    between atoms: _262  and  _263
REMARK  113  A    between atoms: _262  and  _265
REMARK  114  A    between atoms: _265  and  _266
REMARK  115  A    between atoms: _268  and  _270
REMARK  116  A    between atoms: _270  and  _271
REMARK  117  A    between atoms: _270  and  _273
REMARK  118  A    between atoms: _273  and  _274
REMARK  119  A    between atoms: _284  and  _286
REMARK  120  A    between atoms: _286  and  _287
REMARK  121  A    between atoms: _289  and  _291
REMARK  122  A    between atoms: _291  and  _292
REMARK  123  A    between atoms: _291  and  _294
REMARK  124  A    between atoms: _294  and  _295
REMARK  125  A    between atoms: _295  and  _296
REMARK  126  A    between atoms: _296  and  _297
REMARK  127  A    between atoms: _306  and  _308
REMARK  128  A    between atoms: _308  and  _309
REMARK  129  A    between atoms: _308  and  _311
REMARK  130  A    between atoms: _311  and  _312
REMARK  131  A    between atoms: _317  and  _319
REMARK  132  A    between atoms: _319  and  _320
REMARK  133  A    between atoms: _323  and  _325
REMARK  134  A    between atoms: _325  and  _326
REMARK  135  A    between atoms: _325  and  _328
REMARK  136  A    between atoms: _328  and  _329
REMARK  137  A    between atoms: _332  and  _334
REMARK  138  A    between atoms: _334  and  _335
REMARK  139  A    between atoms: _334  and  _337
REMARK  140  A    between atoms: _337  and  _338
REMARK  141  A    between atoms: _338  and  _339
REMARK  142  A    between atoms: _339  and  _340
REMARK  143  A    between atoms: _349  and  _351
REMARK  144  A    between atoms: _351  and  _352
REMARK  145  A    between atoms: _351  and  _354
REMARK  146  A    between atoms: _354  and  _355
REMARK  147  A    between atoms: _355  and  _356
REMARK  148  A    between atoms: _361  and  _363
REMARK  149  A    between atoms: _363  and  _364
REMARK  150  A    between atoms: _363  and  _366
REMARK  151  A    between atoms: _366  and  _367
REMARK  152  A    between atoms: _370  and  _372
REMARK  153  A    between atoms: _372  and  _373
REMARK  154  A    between atoms: _376  and  _378
REMARK  155  A    between atoms: _378  and  _379
REMARK  156  A    between atoms: _378  and  _381
REMARK  157  A    between atoms: _384  and  _386
REMARK  158  A    between atoms: _386  and  _387
REMARK  159  A    between atoms: _386  and  _389
REMARK  160  A    between atoms: _389  and  _390
REMARK  161  A    between atoms: _393  and  _395
REMARK  162  A    between atoms: _395  and  _396
REMARK  163  A    between atoms: _399  and  _401
REMARK  164  A    between atoms: _401  and  _402
REMARK  165  A    between atoms: _401  and  _404
REMARK  166  A    between atoms: _404  and  _405
REMARK  167  A    between atoms: _408  and  _410
REMARK  168  A    between atoms: _410  and  _411
REMARK  169  A    between atoms: _410  and  _413
REMARK  170  A    between atoms: _413  and  _414
REMARK  171  A    between atoms: _414  and  _415
REMARK  172  A    between atoms: _417  and  _419
REMARK  173  A    between atoms: _419  and  _420
REMARK  174  A    between atoms: _419  and  _422
REMARK  175  A    between atoms: _422  and  _423
REMARK  176  A    between atoms: _429  and  _431
REMARK  177  A    between atoms: _431  and  _432
REMARK  178  A    between atoms: _431  and  _434
REMARK  179  A    between atoms: _434  and  _435
REMARK  180  A    between atoms: _438  and  _440
REMARK  181  A    between atoms: _440  and  _441
REMARK  182  A    between atoms: _440  and  _443
REMARK  183  A    between atoms: _443  and  _444
REMARK  184  A    between atoms: _444  and  _445
REMARK  185  A    between atoms: _445  and  _446
REMARK  186  A    between atoms: _455  and  _457
REMARK  187  A    between atoms: _457  and  _458
REMARK  188  A    between atoms: _457  and  _460
REMARK  189  A    between atoms: _460  and  _461
REMARK  190  A    between atoms: _464  and  _466
REMARK  191  A    between atoms: _466  and  _467
REMARK  192  A    between atoms: _466  and  _469
REMARK  193  A    between atoms: _471  and  _473
REMARK  194  A    between atoms: _473  and  _474
REMARK  195  A    between atoms: _473  and  _476
REMARK  196  A    between atoms: _476  and  _477
REMARK  197  A    between atoms: _479  and  _481
REMARK  198  A    between atoms: _481  and  _482
REMARK  199  A    between atoms: _481  and  _484
REMARK  200  A    between atoms: _487  and  _489
REMARK  201  A    between atoms: _489  and  _490
REMARK  202  A    between atoms: _489  and  _492
REMARK  203  A    between atoms: _492  and  _493
REMARK  204  A    between atoms: _496  and  _498
REMARK  205  A    between atoms: _498  and  _499
REMARK  206  A    between atoms: _498  and  _501
REMARK  207  A    between atoms: _501  and  _502
REMARK  208  A    between atoms: _508  and  _510
REMARK  209  A    between atoms: _510  and  _511
REMARK  210  A    between atoms: _510  and  _513
REMARK  211  A    between atoms: _513  and  _514
REMARK  212  A    between atoms: _514  and  _515
REMARK  213  A    between atoms: _517  and  _519
REMARK  214  A    between atoms: _519  and  _520
REMARK  215  A    between atoms: _519  and  _522
REMARK  216  A    between atoms: _522  and  _523
REMARK  217  A    between atoms: _523  and  _524
REMARK  218  A    between atoms: _524  and  _525
REMARK  219  A    between atoms: _534  and  _536
REMARK  220  A    between atoms: _536  and  _537
REMARK  221  A    between atoms: _540  and  _542
REMARK  222  A    between atoms: _542  and  _543
REMARK  223  A    between atoms: _545  and  _547
REMARK  224  A    between atoms: _547  and  _548
REMARK  225  A    between atoms: _547  and  _550
REMARK  226  A    between atoms: _550  and  _551
REMARK  227  A    between atoms: _554  and  _556
REMARK  228  A    between atoms: _556  and  _557
REMARK  229  A    between atoms: _559  and  _561
REMARK  230  A    between atoms: _561  and  _562
REMARK  231  A    between atoms: _561  and  _564
REMARK  232  A    between atoms: _564  and  _565
REMARK  233  A    between atoms: _568  and  _570
REMARK  234  A    between atoms: _570  and  _571
REMARK  235  A    between atoms: _570  and  _573
REMARK  236  A    between atoms: _573  and  _574
REMARK  237  A    between atoms: _580  and  _582
REMARK  238  A    between atoms: _582  and  _583
REMARK  239  A    between atoms: _582  and  _585
REMARK  240  A    between atoms: _585  and  _586
REMARK  241  A    between atoms: _589  and  _591
REMARK  242  A    between atoms: _591  and  _592
REMARK  243  A    between atoms: _595  and  _597
REMARK  244  A    between atoms: _597  and  _598
REMARK  245  A    between atoms: _597  and  _600
REMARK  246  A    between atoms: _600  and  _601
REMARK  247  A    between atoms: _607  and  _609
REMARK  248  A    between atoms: _609  and  _610
REMARK  249  A    between atoms: _609  and  _612
REMARK  250  A    between atoms: _612  and  _613
REMARK  251  A    between atoms: _613  and  _614
REMARK  252  A    between atoms: _616  and  _618
REMARK  253  A    between atoms: _618  and  _619
REMARK  254  A    between atoms: _618  and  _621
REMARK  255  A    between atoms: _621  and  _622
REMARK  256  A    between atoms: _632  and  _634
REMARK  257  A    between atoms: _634  and  _635
REMARK  258  A    between atoms: _634  and  _637
REMARK  259  A    between atoms: _637  and  _638
REMARK  260  A    between atoms: _641  and  _643
REMARK  261  A    between atoms: _643  and  _644
REMARK  262  A    between atoms: _643  and  _646
REMARK  263  A    between atoms: _646  and  _647
REMARK                            x       y       z     vdW  Elec       q    Type
REMARK                         _______ _______ _______ _____ _____    ______ ____
ROOT
ATOM      1  CA  LEU A   1      -7.083   3.749  -4.046  0.00  0.00    +0.133 C 
ENDROOT
BRANCH   1   2
ATOM      2  N   LEU A   1      -5.979   4.689  -3.922  0.00  0.00    -0.239 NA
ATOM      3  H   LEU A   1      -5.528   5.054  -4.785  0.00  0.00    +0.142 HD
ENDBRANCH   1   2
BRANCH   1   4
ATOM      4  C   LEU A   1      -6.693   2.373  -3.475  0.00  0.00    +0.224 C 
ATOM      5  O   LEU A   1      -5.599   1.872  -3.724  0.00  0.00    -0.287 OA
ENDBRANCH   1   4
BRANCH   1   6
ATOM      6  CB  LEU A   1      -7.526   3.626  -5.511  0.00  0.00    +0.025 C 
BRANCH   6   7
ATOM      7  CG  LEU A   1      -8.273   4.800  -6.159  0.00  0.00    +0.002 C 
ATOM      8  CD2 LEU A   1      -7.602   6.156  -5.906  0.00  0.00    +0.000 C 
ATOM      9  CD1 LEU A   1      -8.419   4.535  -7.656  0.00  0.00    +0.000 C 
ENDBRANCH   6   7
ENDBRANCH   1   6
TORSDOF 4
REMARK  Name = ../refined-set-2016/3vw1/3vw1_pocket.pdb
REMARK  263 active torsions:
REMARK  status: ('A' for Active; 'I' for Inactive)
REMARK    1  A    between atoms: _1  and  _3
REMARK    2  A    between atoms: _3  and  _4
REMARK    3  A    between atoms: _3  and  _6
REMARK    4  A    between atoms: _6  and  _7
REMARK    5  A    between atoms: _12  and  _13
REMARK    6  A    between atoms: _15  and  _17
REMARK    7  A    between atoms: _17  and  _18
REMARK    8  A    between atoms: _17  and  _20
REMARK    9  A    between atoms: _20  and  _21
REMARK   10  A    between atoms: _24  and  _26
REMARK   11  A    between atoms: _26  and  _27
REMARK   12  A    between atoms: _26  and  _29
REMARK   13  A    between atoms: _29  and  _30
REMARK   14  A    between atoms: _30  and  _31
REMARK   15  A    between atoms: _31  and  _32
REMARK   16  A    between atoms: _32  and  _33
REMARK   17  A    between atoms: _37  and  _39
REMARK   18  A    between atoms: _39  and  _40
REMARK   19  A    between atoms: _39  and  _42
REMARK   20  A    between atoms: _42  and  _43
REMARK   21  A    between atoms: _43  and  _44
REMARK   22  A    between atoms: _49  and  _51
REMARK   23  A    between atoms: _51  and  _52
REMARK   24  A    between atoms: _51  and  _54
REMARK   25  A    between atoms: _54  and  _55
REMARK   26  A    between atoms: _58  and  _60
REMARK   27  A    between atoms: _60  and  _61
REMARK   28  A    between atoms: _60  and  _63
REMARK   29  A    between atoms: _63  and  _64
REMARK   30  A    between atoms: _67  and  _69
REMARK   31  A    between atoms: _69  and  _70
REMARK   32  A    between atoms: _69  and  _72
REMARK   33  A    between atoms: _74  and  _76
REMARK   34  A    between atoms: _76  and  _77
REMARK   35  A    between atoms: _76  and  _79
REMARK   36  A    between atoms: _79  and  _80
REMARK   37  A    between atoms: _80  and  _81
REMARK   38  A    between atoms: _86  and  _88
REMARK   39  A    between atoms: _88  and  _89
REMARK   40  A    between atoms: _88  and  _91
REMARK   41  A    between atoms: _91  and  _92
REMARK   42  A    between atoms: _94  and  _96
REMARK   43  A    between atoms: _96  and  _97
REMARK   44  A    between atoms: _96  and  _99
REMARK   45  A    between atoms: _99  and  _100
REMARK   46  A    between atoms: _100  and  _101
REMARK   47  A    between atoms: _103  and  _105
REMARK   48  A    between atoms: _105  and  _106
REMARK   49  A    between atoms: _105  and  _108
REMARK   50  A    between atoms: _108  and  _109
REMARK   51  A    between atoms: _112  and  _114
REMARK   52  A    between atoms: _114  and  _115
REMARK   53  A    between atoms: _114  and  _117
REMARK   54  A    between atoms: _117  and  _118
REMARK   55  A    between atoms: _118  and  _119
REMARK   56  A    between atoms: _121  and  _123
REMARK   57  A    between atoms: _123  and  _124
REMARK   58  A    between atoms: _123  and  _126
REMARK   59  A    between atoms: _126  and  _127
REMARK   60  A    between atoms: _127  and  _128
REMARK   61  A    between atoms: _131  and  _133
REMARK   62  A    between atoms: _133  and  _134
REMARK   63  A    between atoms: _133  and  _136
REMARK   64  A    between atoms: _136  and  _137
REMARK   65  A    between atoms: _140  and  _142
REMARK   66  A    between atoms: _142  and  _143
REMARK   67  A    between atoms: _146  and  _148
REMARK   68  A    between atoms: _148  and  _149
REMARK   69  A    between atoms: _148  and  _151
REMARK   70  A    between atoms: _151  and  _152
REMARK   71  A    between atoms: _152  and  _153
REMARK   72  A    between atoms: _155  and  _157
REMARK   73  A    between atoms: _157  and  _158
REMARK   74  A    between atoms: _157  and  _160
REMARK   75  A    between atoms: _160  and  _161
REMARK   76  A    between atoms: _164  and  _166
REMARK   77  A    between atoms: _166  and  _167
REMARK   78  A    between atoms: _166  and  _169
REMARK   79  A    between atoms: _169  and  _170
REMARK   80  A    between atoms: _170  and  _171
REMARK   81  A    between atoms: _171  and  _172
REMARK   82  A    between atoms: _181  and  _183
REMARK   83  A    between atoms: _183  and  _184
REMARK   84  A    between atoms: _183  and  _186
REMARK   85  A    between atoms: _186  and  _187
REMARK   86  A    between atoms: _193  and  _195
REMARK   87  A    between atoms: _195  and  _196
REMARK   88  A    between atoms: _195  and  _198
REMARK   89  A    between atoms: _198  and  _199
REMARK   90  A    between atoms: _202  and  _204
REMARK   91  A    between atoms: _204  and  _205
REMARK   92  A    between atoms: _204  and  _207
REMARK   93  A    between atoms: _207  and  _208
REMARK   94  A    between atoms: _218  and  _220
REMARK   95  A    between atoms: _220  and  _221
REMARK   96  A    between atoms: _220  and  _223
REMARK   97  A    between atoms: _223  and  _224
REMARK   98  A    between atoms: _229  and  _231
REMARK   99  A    between atoms: _231  and  _232
REMARK  100  A    between atoms: _231  and  _234
REMARK  101  A    between atoms: _234  and  _235
REMARK  102  A    between atoms: _237  and  _239
REMARK  103  A    between atoms: _239  and  _240
REMARK  104  A    between atoms: _239  and  _242
REMARK  105  A    between atoms: _242  and  _243
REMARK  106  A    between atoms: _248  and  _249
REMARK  107  A    between atoms: _251  and  _253
REMARK  108  A    between atoms: _253  and  _254
REMARK  109  A    between atoms: _253  and  _256
REMARK  110  A    between atoms: _256  and  _257
REMARK  111  A    between atoms: _260  and  _262
REMARK  112  A    between atoms: _262  and  _263
REMARK  113  A    between atoms: _262  and  _265
REMARK  114  A    between atoms: _265  and  _266
REMARK  115  A    between atoms: _268  and  _270
REMARK  116  A    between atoms: _270  and  _271
REMARK  117  A    between atoms: _270  and  _273
REMARK  118  A    between atoms: _273  and  _274
REMARK  119  A    between atoms: _284  and  _286
REMARK  120  A    between atoms: _286  and  _287
REMARK  121  A    between atoms: _289  and  _291
REMARK  122  A    between atoms: _291  and  _292
REMARK  123  A    between atoms: _291  and  _294
REMARK  124  A    between atoms: _294  and  _295
REMARK  125  A    between atoms: _295  and  _296
REMARK  126  A    between atoms: _296  and  _297
REMARK  127  A    between atoms: _306  and  _308
REMARK  128  A    between atoms: _308  and  _309
REMARK  129  A    between atoms: _308  and  _311
REMARK  130  A    between atoms: _311  and  _312
REMARK  131  A    between atoms: _317  and  _319
REMARK  132  A    between atoms: _319  and  _320
REMARK  133  A    between atoms: _323  and  _325
REMARK  134  A    between atoms: _325  and  _326
REMARK  135  A    between atoms: _325  and  _328
REMARK  136  A    between atoms: _328  and  _329
REMARK  137  A    between atoms: _332  and  _334
REMARK  138  A    between atoms: _334  and  _335
REMARK  139  A    between atoms: _334  and  _337
REMARK  140  A    between atoms: _337  and  _338
REMARK  141  A    between atoms: _338  and  _339
REMARK  142  A    between atoms: _339  and  _340
REMARK  143  A    between atoms: _349  and  _351
REMARK  144  A    between atoms: _351  and  _352
REMARK  145  A    between atoms: _351  and  _354
REMARK  146  A    between atoms: _354  and  _355
REMARK  147  A    between atoms: _355  and  _356
REMARK  148  A    between atoms: _361  and  _363
REMARK  149  A    between atoms: _363  and  _364
REMARK  150  A    between atoms: _363  and  _366
REMARK  151  A    between atoms: _366  and  _367
REMARK  152  A    between atoms: _370  and  _372
REMARK  153  A    between atoms: _372  and  _373
REMARK  154  A    between atoms: _376  and  _378
REMARK  155  A    between atoms: _378  and  _379
REMARK  156  A    between atoms: _378  and  _381
REMARK  157  A    between atoms: _384  and  _386
REMARK  158  A    between atoms: _386  and  _387
REMARK  159  A    between atoms: _386  and  _389
REMARK  160  A    between atoms: _389  and  _390
REMARK  161  A    between atoms: _393  and  _395
REMARK  162  A    between atoms: _395  and  _396
REMARK  163  A    between atoms: _399  and  _401
REMARK  164  A    between atoms: _401  and  _402
REMARK  165  A    between atoms: _401  and  _404
REMARK  166  A    between atoms: _404  and  _405
REMARK  167  A    between atoms: _408  and  _410
REMARK  168  A    between atoms: _410  and  _411
REMARK  169  A    between atoms: _410  and  _413
REMARK  170  A    between atoms: _413  and  _414
REMARK  171  A    between atoms: _414  and  _415
REMARK  172  A    between atoms: _417  and  _419
REMARK  173  A    between atoms: _419  and  _420
REMARK  174  A    between atoms: _419  and  _422
REMARK  175  A    between atoms: _422  and  _423
REMARK  176  A    between atoms: _429  and  _431
REMARK  177  A    between atoms: _431  and  _432
REMARK  178  A    between atoms: _431  and  _434
REMARK  179  A    between atoms: _434  and  _435
REMARK  180  A    between atoms: _438  and  _440
REMARK  181  A    between atoms: _440  and  _441
REMARK  182  A    between atoms: _440  and  _443
REMARK  183  A    between atoms: _443  and  _444
REMARK  184  A    between atoms: _444  and  _445
REMARK  185  A    between atoms: _445  and  _446
REMARK  186  A    between atoms: _455  and  _457
REMARK  187  A    between atoms: _457  and  _458
REMARK  188  A    between atoms: _457  and  _460
REMARK  189  A    between atoms: _460  and  _461
REMARK  190  A    between atoms: _464  and  _466
REMARK  191  A    between atoms: _466  and  _467
REMARK  192  A    between atoms: _466  and  _469
REMARK  193  A    between atoms: _471  and  _473
REMARK  194  A    between atoms: _473  and  _474
REMARK  195  A    between atoms: _473  and  _476
REMARK  196  A    between atoms: _476  and  _477
REMARK  197  A    between atoms: _479  and  _481
REMARK  198  A    between atoms: _481  and  _482
REMARK  199  A    between atoms: _481  and  _484
REMARK  200  A    between atoms: _487  and  _489
REMARK  201  A    between atoms: _489  and  _490
REMARK  202  A    between atoms: _489  and  _492
REMARK  203  A    between atoms: _492  and  _493
REMARK  204  A    between atoms: _496  and  _498
REMARK  205  A    between atoms: _498  and  _499
REMARK  206  A    between atoms: _498  and  _501
REMARK  207  A    between atoms: _501  and  _502
REMARK  208  A    between atoms: _508  and  _510
REMARK  209  A    between atoms: _510  and  _511
REMARK  210  A    between atoms: _510  and  _513
REMARK  211  A    between atoms: _513  and  _514
REMARK  212  A    between atoms: _514  and  _515
REMARK  213  A    between atoms: _517  and  _519
REMARK  214  A    between atoms: _519  and  _520
REMARK  215  A    between atoms: _519  and  _522
REMARK  216  A    between atoms: _522  and  _523
REMARK  217  A    between atoms: _523  and  _524
REMARK  218  A    between atoms: _524  and  _525
REMARK  219  A    between atoms: _534  and  _536
REMARK  220  A    between atoms: _536  and  _537
REMARK  221  A    between atoms: _540  and  _542
REMARK  222  A    between atoms: _542  and  _543
REMARK  223  A    between atoms: _545  and  _547
REMARK  224  A    between atoms: _547  and  _548
REMARK  225  A    between atoms: _547  and  _550
REMARK  226  A    between atoms: _550  and  _551
REMARK  227  A    between atoms: _554  and  _556
REMARK  228  A    between atoms: _556  and  _557
REMARK  229  A    between atoms: _559  and  _561
REMARK  230  A    between atoms: _561  and  _562
REMARK  231  A    between atoms: _561  and  _564
REMARK  232  A    between atoms: _564  and  _565
REMARK  233  A    between atoms: _568  and  _570
REMARK  234  A    between atoms: _570  and  _571
REMARK  235  A    between atoms: _570  and  _573
REMARK  236  A    between atoms: _573  and  _574
REMARK  237  A    between atoms: _580  and  _582
REMARK  238  A    between atoms: _582  and  _583
REMARK  239  A    between atoms: _582  and  _585
REMARK  240  A    between atoms: _585  and  _586
REMARK  241  A    between atoms: _589  and  _591
REMARK  242  A    between atoms: _591  and  _592
REMARK  243  A    between atoms: _595  and  _597
REMARK  244  A    between atoms: _597  and  _598
REMARK  245  A    between atoms: _597  and  _600
REMARK  246  A    between atoms: _600  and  _601
REMARK  247  A    between atoms: _607  and  _609
REMARK  248  A    between atoms: _609  and  _610
REMARK  249  A    between atoms: _609  and  _612
REMARK  250  A    between atoms: _612  and  _613
REMARK  251  A    between atoms: _613  and  _614
REMARK  252  A    between atoms: _616  and  _618
REMARK  253  A    between atoms: _618  and  _619
REMARK  254  A    between atoms: _618  and  _621
REMARK  255  A    between atoms: _621  and  _622
REMARK  256  A    between atoms: _632  and  _634
REMARK  257  A    between atoms: _634  and  _635
REMARK  258  A    between atoms: _634  and  _637
REMARK  259  A    between atoms: _637  and  _638
REMARK  260  A    between atoms: _641  and  _643
REMARK  261  A    between atoms: _643  and  _644
REMARK  262  A    between atoms: _643  and  _646
REMARK  263  A    between atoms: _646  and  _647
REMARK                            x       y       z     vdW  Elec       q    Type
REMARK                         _______ _______ _______ _____ _____    ______ ____
ROOT
ATOM      1  C   ALA A   1     -15.487  -1.378 -10.023  0.00  0.00    +0.238 C 
ATOM      2  N   ASP A   2     -14.545  -2.321 -10.180  0.00  0.00    -0.298 N 
ATOM      3  H   ASP A   2     -13.714  -2.322  -9.555  0.00  0.00    +0.150 HD
ATOM      4  O   ALA A   1     -16.537  -1.372 -10.672  0.00  0.00    -0.274 OA
ENDROOT
BRANCH   1   5
ATOM      5  CA  ALA A   1     -15.246  -0.308  -8.941  0.00  0.00    +0.145 C 
ATOM      6  CB  ALA A   1     -14.039   0.546  -9.286  0.00  0.00    +0.028 C 
BRANCH   5   7
ATOM      7  N   ALA A   1     -15.077  -0.922  -7.617  0.00  0.00    -0.238 NA
ATOM      8  H   ALA A   1     -14.162  -0.806  -7.136  0.00  0.00    +0.142 HD
ENDBRANCH   5   7
ENDBRANCH   1   5
BRANCH   2   9
ATOM      9  CA  ASP A   2     -14.668  -3.351 -11.219  0.00  0.00    +0.148 C 
BRANCH   9  10
ATOM     10  C   ASP A   2     -15.900  -4.253 -11.060  0.00  0.00    +0.227 C 
ATOM     11  O   ASP A   2     -16.322  -4.921 -12.028  0.00  0.00    -0.286 OA
ENDBRANCH   9  10
BRANCH   9  12
ATOM     12  CB  ASP A   2     -13.380  -4.176 -11.350  0.00  0.00    +0.142 C 
BRANCH  12  13
ATOM     13  CG  ASP A   2     -12.212  -3.367 -11.934  0.00  0.00    +0.367 C 
ATOM     14  OD2 ASP A   2     -11.162  -3.285 -11.267  0.00  0.00    -0.246 OA
ATOM     15  OD1 ASP A   2     -12.332  -2.808 -13.047  0.00  0.00    -0.246 OA
ENDBRANCH  12  13
ENDBRANCH   9  12
ENDBRANCH   2   9
TORSDOF 6
REMARK  Name = ../refined-set-2016/3vw1/3vw1_pocket.pdb
REMARK  263 active torsions:
REMARK  status: ('A' for Active; 'I' for Inactive)
REMARK    1  A    between atoms: _1  and  _3
REMARK    2  A    between atoms: _3  and  _4
REMARK    3  A    between atoms: _3  and  _6
REMARK    4  A    between atoms: _6  and  _7
REMARK    5  A    between atoms: _12  and  _13
REMARK    6  A    between atoms: _15  and  _17
REMARK    7  A    between atoms: _17  and  _18
REMARK    8  A    between atoms: _17  and  _20
REMARK    9  A    between atoms: _20  and  _21
REMARK   10  A    between atoms: _24  and  _26
REMARK   11  A    between atoms: _26  and  _27
REMARK   12  A    between atoms: _26  and  _29
REMARK   13  A    between atoms: _29  and  _30
REMARK   14  A    between atoms: _30  and  _31
REMARK   15  A    between atoms: _31  and  _32
REMARK   16  A    between atoms: _32  and  _33
REMARK   17  A    between atoms: _37  and  _39
REMARK   18  A    between atoms: _39  and  _40
REMARK   19  A    between atoms: _39  and  _42
REMARK   20  A    between atoms: _42  and  _43
REMARK   21  A    between atoms: _43  and  _44
REMARK   22  A    between atoms: _49  and  _51
REMARK   23  A    between atoms: _51  and  _52
REMARK   24  A    between atoms: _51  and  _54
REMARK   25  A    between atoms: _54  and  _55
REMARK   26  A    between atoms: _58  and  _60
REMARK   27  A    between atoms: _60  and  _61
REMARK   28  A    between atoms: _60  and  _63
REMARK   29  A    between atoms: _63  and  _64
REMARK   30  A    between atoms: _67  and  _69
REMARK   31  A    between atoms: _69  and  _70
REMARK   32  A    between atoms: _69  and  _72
REMARK   33  A    between atoms: _74  and  _76
REMARK   34  A    between atoms: _76  and  _77
REMARK   35  A    between atoms: _76  and  _79
REMARK   36  A    between atoms: _79  and  _80
REMARK   37  A    between atoms: _80  and  _81
REMARK   38  A    between atoms: _86  and  _88
REMARK   39  A    between atoms: _88  and  _89
REMARK   40  A    between atoms: _88  and  _91
REMARK   41  A    between atoms: _91  and  _92
REMARK   42  A    between atoms: _94  and  _96
REMARK   43  A    between atoms: _96  and  _97
REMARK   44  A    between atoms: _96  and  _99
REMARK   45  A    between atoms: _99  and  _100
REMARK   46  A    between atoms: _100  and  _101
REMARK   47  A    between atoms: _103  and  _105
REMARK   48  A    between atoms: _105  and  _106
REMARK   49  A    between atoms: _105  and  _108
REMARK   50  A    between atoms: _108  and  _109
REMARK   51  A    between atoms: _112  and  _114
REMARK   52  A    between atoms: _114  and  _115
REMARK   53  A    between atoms: _114  and  _117
REMARK   54  A    between atoms: _117  and  _118
REMARK   55  A    between atoms: _118  and  _119
REMARK   56  A    between atoms: _121  and  _123
REMARK   57  A    between atoms: _123  and  _124
REMARK   58  A    between atoms: _123  and  _126
REMARK   59  A    between atoms: _126  and  _127
REMARK   60  A    between atoms: _127  and  _128
REMARK   61  A    between atoms: _131  and  _133
REMARK   62  A    between atoms: _133  and  _134
REMARK   63  A    between atoms: _133  and  _136
REMARK   64  A    between atoms: _136  and  _137
REMARK   65  A    between atoms: _140  and  _142
REMARK   66  A    between atoms: _142  and  _143
REMARK   67  A    between atoms: _146  and  _148
REMARK   68  A    between atoms: _148  and  _149
REMARK   69  A    between atoms: _148  and  _151
REMARK   70  A    between atoms: _151  and  _152
REMARK   71  A    between atoms: _152  and  _153
REMARK   72  A    between atoms: _155  and  _157
REMARK   73  A    between atoms: _157  and  _158
REMARK   74  A    between atoms: _157  and  _160
REMARK   75  A    between atoms: _160  and  _161
REMARK   76  A    between atoms: _164  and  _166
REMARK   77  A    between atoms: _166  and  _167
REMARK   78  A    between atoms: _166  and  _169
REMARK   79  A    between atoms: _169  and  _170
REMARK   80  A    between atoms: _170  and  _171
REMARK   81  A    between atoms: _171  and  _172
REMARK   82  A    between atoms: _181  and  _183
REMARK   83  A    between atoms: _183  and  _184
REMARK   84  A    between atoms: _183  and  _186
REMARK   85  A    between atoms: _186  and  _187
REMARK   86  A    between atoms: _193  and  _195
REMARK   87  A    between atoms: _195  and  _196
REMARK   88  A    between atoms: _195  and  _198
REMARK   89  A    between atoms: _198  and  _199
REMARK   90  A    between atoms: _202  and  _204
REMARK   91  A    between atoms: _204  and  _205
REMARK   92  A    between atoms: _204  and  _207
REMARK   93  A    between atoms: _207  and  _208
REMARK   94  A    between atoms: _218  and  _220
REMARK   95  A    between atoms: _220  and  _221
REMARK   96  A    between atoms: _220  and  _223
REMARK   97  A    between atoms: _223  and  _224
REMARK   98  A    between atoms: _229  and  _231
REMARK   99  A    between atoms: _231  and  _232
REMARK  100  A    between atoms: _231  and  _234
REMARK  101  A    between atoms: _234  and  _235
REMARK  102  A    between atoms: _237  and  _239
REMARK  103  A    between atoms: _239  and  _240
REMARK  104  A    between atoms: _239  and  _242
REMARK  105  A    between atoms: _242  and  _243
REMARK  106  A    between atoms: _248  and  _249
REMARK  107  A    between atoms: _251  and  _253
REMARK  108  A    between atoms: _253  and  _254
REMARK  109  A    between atoms: _253  and  _256
REMARK  110  A    between atoms: _256  and  _257
REMARK  111  A    between atoms: _260  and  _262
REMARK  112  A    between atoms: _262  and  _263
REMARK  113  A    between atoms: _262  and  _265
REMARK  114  A    between atoms: _265  and  _266
REMARK  115  A    between atoms: _268  and  _270
REMARK  116  A    between atoms: _270  and  _271
REMARK  117  A    between atoms: _270  and  _273
REMARK  118  A    between atoms: _273  and  _274
REMARK  119  A    between atoms: _284  and  _286
REMARK  120  A    between atoms: _286  and  _287
REMARK  121  A    between atoms: _289  and  _291
REMARK  122  A    between atoms: _291  and  _292
REMARK  123  A    between atoms: _291  and  _294
REMARK  124  A    between atoms: _294  and  _295
REMARK  125  A    between atoms: _295  and  _296
REMARK  126  A    between atoms: _296  and  _297
REMARK  127  A    between atoms: _306  and  _308
REMARK  128  A    between atoms: _308  and  _309
REMARK  129  A    between atoms: _308  and  _311
REMARK  130  A    between atoms: _311  and  _312
REMARK  131  A    between atoms: _317  and  _319
REMARK  132  A    between atoms: _319  and  _320
REMARK  133  A    between atoms: _323  and  _325
REMARK  134  A    between atoms: _325  and  _326
REMARK  135  A    between atoms: _325  and  _328
REMARK  136  A    between atoms: _328  and  _329
REMARK  137  A    between atoms: _332  and  _334
REMARK  138  A    between atoms: _334  and  _335
REMARK  139  A    between atoms: _334  and  _337
REMARK  140  A    between atoms: _337  and  _338
REMARK  141  A    between atoms: _338  and  _339
REMARK  142  A    between atoms: _339  and  _340
REMARK  143  A    between atoms: _349  and  _351
REMARK  144  A    between atoms: _351  and  _352
REMARK  145  A    between atoms: _351  and  _354
REMARK  146  A    between atoms: _354  and  _355
REMARK  147  A    between atoms: _355  and  _356
REMARK  148  A    between atoms: _361  and  _363
REMARK  149  A    between atoms: _363  and  _364
REMARK  150  A    between atoms: _363  and  _366
REMARK  151  A    between atoms: _366  and  _367
REMARK  152  A    between atoms: _370  and  _372
REMARK  153  A    between atoms: _372  and  _373
REMARK  154  A    between atoms: _376  and  _378
REMARK  155  A    between atoms: _378  and  _379
REMARK  156  A    between atoms: _378  and  _381
REMARK  157  A    between atoms: _384  and  _386
REMARK  158  A    between atoms: _386  and  _387
REMARK  159  A    between atoms: _386  and  _389
REMARK  160  A    between atoms: _389  and  _390
REMARK  161  A    between atoms: _393  and  _395
REMARK  162  A    between atoms: _395  and  _396
REMARK  163  A    between atoms: _399  and  _401
REMARK  164  A    between atoms: _401  and  _402
REMARK  165  A    between atoms: _401  and  _404
REMARK  166  A    between atoms: _404  and  _405
REMARK  167  A    between atoms: _408  and  _410
REMARK  168  A    between atoms: _410  and  _411
REMARK  169  A    between atoms: _410  and  _413
REMARK  170  A    between atoms: _413  and  _414
REMARK  171  A    between atoms: _414  and  _415
REMARK  172  A    between atoms: _417  and  _419
REMARK  173  A    between atoms: _419  and  _420
REMARK  174  A    between atoms: _419  and  _422
REMARK  175  A    between atoms: _422  and  _423
REMARK  176  A    between atoms: _429  and  _431
REMARK  177  A    between atoms: _431  and  _432
REMARK  178  A    between atoms: _431  and  _434
REMARK  179  A    between atoms: _434  and  _435
REMARK  180  A    between atoms: _438  and  _440
REMARK  181  A    between atoms: _440  and  _441
REMARK  182  A    between atoms: _440  and  _443
REMARK  183  A    between atoms: _443  and  _444
REMARK  184  A    between atoms: _444  and  _445
REMARK  185  A    between atoms: _445  and  _446
REMARK  186  A    between atoms: _455  and  _457
REMARK  187  A    between atoms: _457  and  _458
REMARK  188  A    between atoms: _457  and  _460
REMARK  189  A    between atoms: _460  and  _461
REMARK  190  A    between atoms: _464  and  _466
REMARK  191  A    between atoms: _466  and  _467
REMARK  192  A    between atoms: _466  and  _469
REMARK  193  A    between atoms: _471  and  _473
REMARK  194  A    between atoms: _473  and  _474
REMARK  195  A    between atoms: _473  and  _476
REMARK  196  A    between atoms: _476  and  _477
REMARK  197  A    between atoms: _479  and  _481
REMARK  198  A    between atoms: _481  and  _482
REMARK  199  A    between atoms: _481  and  _484
REMARK  200  A    between atoms: _487  and  _489
REMARK  201  A    between atoms: _489  and  _490
REMARK  202  A    between atoms: _489  and  _492
REMARK  203  A    between atoms: _492  and  _493
REMARK  204  A    between atoms: _496  and  _498
REMARK  205  A    between atoms: _498  and  _499
REMARK  206  A    between atoms: _498  and  _501
REMARK  207  A    between atoms: _501  and  _502
REMARK  208  A    between atoms: _508  and  _510
REMARK  209  A    between atoms: _510  and  _511
REMARK  210  A    between atoms: _510  and  _513
REMARK  211  A    between atoms: _513  and  _514
REMARK  212  A    between atoms: _514  and  _515
REMARK  213  A    between atoms: _517  and  _519
REMARK  214  A    between atoms: _519  and  _520
REMARK  215  A    between atoms: _519  and  _522
REMARK  216  A    between atoms: _522  and  _523
REMARK  217  A    between atoms: _523  and  _524
REMARK  218  A    between atoms: _524  and  _525
REMARK  219  A    between atoms: _534  and  _536
REMARK  220  A    between atoms: _536  and  _537
REMARK  221  A    between atoms: _540  and  _542
REMARK  222  A    between atoms: _542  and  _543
REMARK  223  A    between atoms: _545  and  _547
REMARK  224  A    between atoms: _547  and  _548
REMARK  225  A    between atoms: _547  and  _550
REMARK  226  A    between atoms: _550  and  _551
REMARK  227  A    between atoms: _554  and  _556
REMARK  228  A    between atoms: _556  and  _557
REMARK  229  A    between atoms: _559  and  _561
REMARK  230  A    between atoms: _561  and  _562
REMARK  231  A    between atoms: _561  and  _564
REMARK  232  A    between atoms: _564  and  _565
REMARK  233  A    between atoms: _568  and  _570
REMARK  234  A    between atoms: _570  and  _571
REMARK  235  A    between atoms: _570  and  _573
REMARK  236  A    between atoms: _573  and  _574
REMARK  237  A    between atoms: _580  and  _582
REMARK  238  A    between atoms: _582  and  _583
REMARK  239  A    between atoms: _582  and  _585
REMARK  240  A    between atoms: _585  and  _586
REMARK  241  A    between atoms: _589  and  _591
REMARK  242  A    between atoms: _591  and  _592
REMARK  243  A    between atoms: _595  and  _597
REMARK  244  A    between atoms: _597  and  _598
REMARK  245  A    between atoms: _597  and  _600
REMARK  246  A    between atoms: _600  and  _601
REMARK  247  A    between atoms: _607  and  _609
REMARK  248  A    between atoms: _609  and  _610
REMARK  249  A    between atoms: _609  and  _612
REMARK  250  A    between atoms: _612  and  _613
REMARK  251  A    between atoms: _613  and  _614
REMARK  252  A    between atoms: _616  and  _618
REMARK  253  A    between atoms: _618  and  _619
REMARK  254  A    between atoms: _618  and  _621
REMARK  255  A    between atoms: _621  and  _622
REMARK  256  A    between atoms: _632  and  _634
REMARK  257  A    between atoms: _634  and  _635
REMARK  258  A    between atoms: _634  and  _637
REMARK  259  A    between atoms: _637  and  _638
REMARK  260  A    between atoms: _641  and  _643
REMARK  261  A    between atoms: _643  and  _644
REMARK  262  A    between atoms: _643  and  _646
REMARK  263  A    between atoms: _646  and  _647
REMARK                            x       y       z     vdW  Elec       q    Type
REMARK                         _______ _______ _______ _____ _____    ______ ____
ROOT
ATOM      1  C   MET A   1     -20.354  -2.413 -12.136  0.00  0.00    +0.238 C 
ATOM      2  O   MET A   1     -21.494  -2.160 -12.511  0.00  0.00    -0.274 OA
ATOM      3  N   PHE A   2     -19.451  -2.906 -12.965  0.00  0.00    -0.298 N 
ATOM      4  H   PHE A   2     -18.490  -3.111 -12.626  0.00  0.00    +0.150 HD
ENDROOT
BRANCH   1   5
ATOM      5  CA  MET A   1     -19.912  -2.170 -10.680  0.00  0.00    +0.146 C 
BRANCH   5   6
ATOM      6  N   MET A   1     -18.833  -3.024 -10.200  0.00  0.00    -0.238 NA
ATOM      7  H   MET A   1     -17.949  -2.569  -9.893  0.00  0.00    +0.142 HD
ENDBRANCH   5   6
BRANCH   5   8
ATOM      8  CB  MET A   1     -19.504  -0.708 -10.495  0.00  0.00    +0.038 C 
BRANCH   8   9
ATOM      9  CG  MET A   1     -19.609  -0.157  -9.044  0.00  0.00    +0.060 C 
BRANCH   9  10
ATOM     10  SD  MET A   1     -18.813   1.480  -8.949  0.00  0.00    -0.139 S 
ATOM     11  CE  MET A   1     -19.317   2.145 -10.503  0.00  0.00    +0.069 C 
ENDBRANCH   9  10
ENDBRANCH   8   9
ENDBRANCH   5   8
ENDBRANCH   1   5
BRANCH   3  12
ATOM     12  CA  PHE A   2     -19.801  -3.160 -14.345  0.00  0.00    +0.141 C 
BRANCH  12  13
ATOM     13  C   PHE A   2     -19.106  -4.442 -14.754  0.00  0.00    +0.227 C 
ATOM     14  O   PHE A   2     -17.980  -4.409 -15.252  0.00  0.00    -0.286 OA
ENDBRANCH  12  13
BRANCH  12  15
ATOM     15  CB  PHE A   2     -19.342  -1.992 -15.206  0.00  0.00    +0.054 C 
BRANCH  15  16
ATOM     16  CG  PHE A   2     -20.063  -1.869 -16.526  0.00  0.00    -0.020 A 
ATOM     17  CD2 PHE A   2     -20.206  -0.602 -17.129  0.00  0.00    -0.004 A 
ATOM     18  CE2 PHE A   2     -20.843  -0.458 -18.346  0.00  0.00    -0.000 A 
ATOM     19  CZ  PHE A   2     -21.324  -1.588 -19.000  0.00  0.00    -0.000 A 
ATOM     20  CE1 PHE A   2     -21.175  -2.861 -18.429  0.00  0.00    -0.000 A 
ATOM     21  CD1 PHE A   2     -20.530  -3.001 -17.194  0.00  0.00    -0.004 A 
ENDBRANCH  15  16
ENDBRANCH  12  15
ENDBRANCH   3  12
TORSDOF 9
REMARK  Name = ../refined-set-2016/3vw1/3vw1_pocket.pdb
REMARK  263 active torsions:
REMARK  status: ('A' for Active; 'I' for Inactive)
REMARK    1  A    between atoms: _1  and  _3
REMARK    2  A    between atoms: _3  and  _4
REMARK    3  A    between atoms: _3  and  _6
REMARK    4  A    between atoms: _6  and  _7
REMARK    5  A    between atoms: _12  and  _13
REMARK    6  A    between atoms: _15  and  _17
REMARK    7  A    between atoms: _17  and  _18
REMARK    8  A    between atoms: _17  and  _20
REMARK    9  A    between atoms: _20  and  _21
REMARK   10  A    between atoms: _24  and  _26
REMARK   11  A    between atoms: _26  and  _27
REMARK   12  A    between atoms: _26  and  _29
REMARK   13  A    between atoms: _29  and  _30
REMARK   14  A    between atoms: _30  and  _31
REMARK   15  A    between atoms: _31  and  _32
REMARK   16  A    between atoms: _32  and  _33
REMARK   17  A    between atoms: _37  and  _39
REMARK   18  A    between atoms: _39  and  _40
REMARK   19  A    between atoms: _39  and  _42
REMARK   20  A    between atoms: _42  and  _43
REMARK   21  A    between atoms: _43  and  _44
REMARK   22  A    between atoms: _49  and  _51
REMARK   23  A    between atoms: _51  and  _52
REMARK   24  A    between atoms: _51  and  _54
REMARK   25  A    between atoms: _54  and  _55
REMARK   26  A    between atoms: _58  and  _60
REMARK   27  A    between atoms: _60  and  _61
REMARK   28  A    between atoms: _60  and  _63
REMARK   29  A    between atoms: _63  and  _64
REMARK   30  A    between atoms: _67  and  _69
REMARK   31  A    between atoms: _69  and  _70
REMARK   32  A    between atoms: _69  and  _72
REMARK   33  A    between atoms: _74  and  _76
REMARK   34  A    between atoms: _76  and  _77
REMARK   35  A    between atoms: _76  and  _79
REMARK   36  A    between atoms: _79  and  _80
REMARK   37  A    between atoms: _80  and  _81
REMARK   38  A    between atoms: _86  and  _88
REMARK   39  A    between atoms: _88  and  _89
REMARK   40  A    between atoms: _88  and  _91
REMARK   41  A    between atoms: _91  and  _92
REMARK   42  A    between atoms: _94  and  _96
REMARK   43  A    between atoms: _96  and  _97
REMARK   44  A    between atoms: _96  and  _99
REMARK   45  A    between atoms: _99  and  _100
REMARK   46  A    between atoms: _100  and  _101
REMARK   47  A    between atoms: _103  and  _105
REMARK   48  A    between atoms: _105  and  _106
REMARK   49  A    between atoms: _105  and  _108
REMARK   50  A    between atoms: _108  and  _109
REMARK   51  A    between atoms: _112  and  _114
REMARK   52  A    between atoms: _114  and  _115
REMARK   53  A    between atoms: _114  and  _117
REMARK   54  A    between atoms: _117  and  _118
REMARK   55  A    between atoms: _118  and  _119
REMARK   56  A    between atoms: _121  and  _123
REMARK   57  A    between atoms: _123  and  _124
REMARK   58  A    between atoms: _123  and  _126
REMARK   59  A    between atoms: _126  and  _127
REMARK   60  A    between atoms: _127  and  _128
REMARK   61  A    between atoms: _131  and  _133
REMARK   62  A    between atoms: _133  and  _134
REMARK   63  A    between atoms: _133  and  _136
REMARK   64  A    between atoms: _136  and  _137
REMARK   65  A    between atoms: _140  and  _142
REMARK   66  A    between atoms: _142  and  _143
REMARK   67  A    between atoms: _146  and  _148
REMARK   68  A    between atoms: _148  and  _149
REMARK   69  A    between atoms: _148  and  _151
REMARK   70  A    between atoms: _151  and  _152
REMARK   71  A    between atoms: _152  and  _153
REMARK   72  A    between atoms: _155  and  _157
REMARK   73  A    between atoms: _157  and  _158
REMARK   74  A    between atoms: _157  and  _160
REMARK   75  A    between atoms: _160  and  _161
REMARK   76  A    between atoms: _164  and  _166
REMARK   77  A    between atoms: _166  and  _167
REMARK   78  A    between atoms: _166  and  _169
REMARK   79  A    between atoms: _169  and  _170
REMARK   80  A    between atoms: _170  and  _171
REMARK   81  A    between atoms: _171  and  _172
REMARK   82  A    between atoms: _181  and  _183
REMARK   83  A    between atoms: _183  and  _184
REMARK   84  A    between atoms: _183  and  _186
REMARK   85  A    between atoms: _186  and  _187
REMARK   86  A    between atoms: _193  and  _195
REMARK   87  A    between atoms: _195  and  _196
REMARK   88  A    between atoms: _195  and  _198
REMARK   89  A    between atoms: _198  and  _199
REMARK   90  A    between atoms: _202  and  _204
REMARK   91  A    between atoms: _204  and  _205
REMARK   92  A    between atoms: _204  and  _207
REMARK   93  A    between atoms: _207  and  _208
REMARK   94  A    between atoms: _218  and  _220
REMARK   95  A    between atoms: _220  and  _221
REMARK   96  A    between atoms: _220  and  _223
REMARK   97  A    between atoms: _223  and  _224
REMARK   98  A    between atoms: _229  and  _231
REMARK   99  A    between atoms: _231  and  _232
REMARK  100  A    between atoms: _231  and  _234
REMARK  101  A    between atoms: _234  and  _235
REMARK  102  A    between atoms: _237  and  _239
REMARK  103  A    between atoms: _239  and  _240
REMARK  104  A    between atoms: _239  and  _242
REMARK  105  A    between atoms: _242  and  _243
REMARK  106  A    between atoms: _248  and  _249
REMARK  107  A    between atoms: _251  and  _253
REMARK  108  A    between atoms: _253  and  _254
REMARK  109  A    between atoms: _253  and  _256
REMARK  110  A    between atoms: _256  and  _257
REMARK  111  A    between atoms: _260  and  _262
REMARK  112  A    between atoms: _262  and  _263
REMARK  113  A    between atoms: _262  and  _265
REMARK  114  A    between atoms: _265  and  _266
REMARK  115  A    between atoms: _268  and  _270
REMARK  116  A    between atoms: _270  and  _271
REMARK  117  A    between atoms: _270  and  _273
REMARK  118  A    between atoms: _273  and  _274
REMARK  119  A    between atoms: _284  and  _286
REMARK  120  A    between atoms: _286  and  _287
REMARK  121  A    between atoms: _289  and  _291
REMARK  122  A    between atoms: _291  and  _292
REMARK  123  A    between atoms: _291  and  _294
REMARK  124  A    between atoms: _294  and  _295
REMARK  125  A    between atoms: _295  and  _296
REMARK  126  A    between atoms: _296  and  _297
REMARK  127  A    between atoms: _306  and  _308
REMARK  128  A    between atoms: _308  and  _309
REMARK  129  A    between atoms: _308  and  _311
REMARK  130  A    between atoms: _311  and  _312
REMARK  131  A    between atoms: _317  and  _319
REMARK  132  A    between atoms: _319  and  _320
REMARK  133  A    between atoms: _323  and  _325
REMARK  134  A    between atoms: _325  and  _326
REMARK  135  A    between atoms: _325  and  _328
REMARK  136  A    between atoms: _328  and  _329
REMARK  137  A    between atoms: _332  and  _334
REMARK  138  A    between atoms: _334  and  _335
REMARK  139  A    between atoms: _334  and  _337
REMARK  140  A    between atoms: _337  and  _338
REMARK  141  A    between atoms: _338  and  _339
REMARK  142  A    between atoms: _339  and  _340
REMARK  143  A    between atoms: _349  and  _351
REMARK  144  A    between atoms: _351  and  _352
REMARK  145  A    between atoms: _351  and  _354
REMARK  146  A    between atoms: _354  and  _355
REMARK  147  A    between atoms: _355  and  _356
REMARK  148  A    between atoms: _361  and  _363
REMARK  149  A    between atoms: _363  and  _364
REMARK  150  A    between atoms: _363  and  _366
REMARK  151  A    between atoms: _366  and  _367
REMARK  152  A    between atoms: _370  and  _372
REMARK  153  A    between atoms: _372  and  _373
REMARK  154  A    between atoms: _376  and  _378
REMARK  155  A    between atoms: _378  and  _379
REMARK  156  A    between atoms: _378  and  _381
REMARK  157  A    between atoms: _384  and  _386
REMARK  158  A    between atoms: _386  and  _387
REMARK  159  A    between atoms: _386  and  _389
REMARK  160  A    between atoms: _389  and  _390
REMARK  161  A    between atoms: _393  and  _395
REMARK  162  A    between atoms: _395  and  _396
REMARK  163  A    between atoms: _399  and  _401
REMARK  164  A    between atoms: _401  and  _402
REMARK  165  A    between atoms: _401  and  _404
REMARK  166  A    between atoms: _404  and  _405
REMARK  167  A    between atoms: _408  and  _410
REMARK  168  A    between atoms: _410  and  _411
REMARK  169  A    between atoms: _410  and  _413
REMARK  170  A    between atoms: _413  and  _414
REMARK  171  A    between atoms: _414  and  _415
REMARK  172  A    between atoms: _417  and  _419
REMARK  173  A    between atoms: _419  and  _420
REMARK  174  A    between atoms: _419  and  _422
REMARK  175  A    between atoms: _422  and  _423
REMARK  176  A    between atoms: _429  and  _431
REMARK  177  A    between atoms: _431  and  _432
REMARK  178  A    between atoms: _431  and  _434
REMARK  179  A    between atoms: _434  and  _435
REMARK  180  A    between atoms: _438  and  _440
REMARK  181  A    between atoms: _440  and  _441
REMARK  182  A    between atoms: _440  and  _443
REMARK  183  A    between atoms: _443  and  _444
REMARK  184  A    between atoms: _444  and  _445
REMARK  185  A    between atoms: _445  and  _446
REMARK  186  A    between atoms: _455  and  _457
REMARK  187  A    between atoms: _457  and  _458
REMARK  188  A    between atoms: _457  and  _460
REMARK  189  A    between atoms: _460  and  _461
REMARK  190  A    between atoms: _464  and  _466
REMARK  191  A    between atoms: _466  and  _467
REMARK  192  A    between atoms: _466  and  _469
REMARK  193  A    between atoms: _471  and  _473
REMARK  194  A    between atoms: _473  and  _474
REMARK  195  A    between atoms: _473  and  _476
REMARK  196  A    between atoms: _476  and  _477
REMARK  197  A    between atoms: _479  and  _481
REMARK  198  A    between atoms: _481  and  _482
REMARK  199  A    between atoms: _481  and  _484
REMARK  200  A    between atoms: _487  and  _489
REMARK  201  A    between atoms: _489  and  _490
REMARK  202  A    between atoms: _489  and  _492
REMARK  203  A    between atoms: _492  and  _493
REMARK  204  A    between atoms: _496  and  _498
REMARK  205  A    between atoms: _498  and  _499
REMARK  206  A    between atoms: _498  and  _501
REMARK  207  A    between atoms: _501  and  _502
REMARK  208  A    between atoms: _508  and  _510
REMARK  209  A    between atoms: _510  and  _511
REMARK  210  A    between atoms: _510  and  _513
REMARK  211  A    between atoms: _513  and  _514
REMARK  212  A    between atoms: _514  and  _515
REMARK  213  A    between atoms: _517  and  _519
REMARK  214  A    between atoms: _519  and  _520
REMARK  215  A    between atoms: _519  and  _522
REMARK  216  A    between atoms: _522  and  _523
REMARK  217  A    between atoms: _523  and  _524
REMARK  218  A    between atoms: _524  and  _525
REMARK  219  A    between atoms: _534  and  _536
REMARK  220  A    between atoms: _536  and  _537
REMARK  221  A    between atoms: _540  and  _542
REMARK  222  A    between atoms: _542  and  _543
REMARK  223  A    between atoms: _545  and  _547
REMARK  224  A    between atoms: _547  and  _548
REMARK  225  A    between atoms: _547  and  _550
REMARK  226  A    between atoms: _550  and  _551
REMARK  227  A    between atoms: _554  and  _556
REMARK  228  A    between atoms: _556  and  _557
REMARK  229  A    between atoms: _559  and  _561
REMARK  230  A    between atoms: _561  and  _562
REMARK  231  A    between atoms: _561  and  _564
REMARK  232  A    between atoms: _564  and  _565
REMARK  233  A    between atoms: _568  and  _570
REMARK  234  A    between atoms: _570  and  _571
REMARK  235  A    between atoms: _570  and  _573
REMARK  236  A    between atoms: _573  and  _574
REMARK  237  A    between atoms: _580  and  _582
REMARK  238  A    between atoms: _582  and  _583
REMARK  239  A    between atoms: _582  and  _585
REMARK  240  A    between atoms: _585  and  _586
REMARK  241  A    between atoms: _589  and  _591
REMARK  242  A    between atoms: _591  and  _592
REMARK  243  A    between atoms: _595  and  _597
REMARK  244  A    between atoms: _597  and  _598
REMARK  245  A    between atoms: _597  and  _600
REMARK  246  A    between atoms: _600  and  _601
REMARK  247  A    between atoms: _607  and  _609
REMARK  248  A    between atoms: _609  and  _610
REMARK  249  A    between atoms: _609  and  _612
REMARK  250  A    between atoms: _612  and  _613
REMARK  251  A    between atoms: _613  and  _614
REMARK  252  A    between atoms: _616  and  _618
REMARK  253  A    between atoms: _618  and  _619
REMARK  254  A    between atoms: _618  and  _621
REMARK  255  A    between atoms: _621  and  _622
REMARK  256  A    between atoms: _632  and  _634
REMARK  257  A    between atoms: _634  and  _635
REMARK  258  A    between atoms: _634  and  _637
REMARK  259  A    between atoms: _637  and  _638
REMARK  260  A    between atoms: _641  and  _643
REMARK  261  A    between atoms: _643  and  _644
REMARK  262  A    between atoms: _643  and  _646
REMARK  263  A    between atoms: _646  and  _647
REMARK                            x       y       z     vdW  Elec       q    Type
REMARK                         _______ _______ _______ _____ _____    ______ ____
ROOT
ATOM      1  CA  ARG A   2     -14.500  -6.309 -17.015  0.00  0.00    +0.137 C 
ENDROOT
BRANCH   1   3
ATOM      2  C   LEU A   1     -15.707  -5.008 -18.679  0.00  0.00    +0.238 C 
ATOM      3  N   ARG A   2     -15.612  -5.489 -17.450  0.00  0.00    -0.298 N 
ATOM      4  H   ARG A   2     -16.366  -5.269 -16.769  0.00  0.00    +0.150 HD
ATOM      5  O   LEU A   1     -14.857  -5.195 -19.538  0.00  0.00    -0.274 OA
BRANCH   2   6
ATOM      6  CA  LEU A   1     -16.983  -4.209 -18.993  0.00  0.00    +0.145 C 
BRANCH   6   7
ATOM      7  N   LEU A   1     -18.177  -4.963 -18.601  0.00  0.00    -0.238 NA
ATOM      8  H   LEU A   1     -18.818  -4.559 -17.888  0.00  0.00    +0.142 HD
ENDBRANCH   6   7
BRANCH   6   9
ATOM      9  CB  LEU A   1     -16.960  -2.862 -18.288  0.00  0.00    +0.026 C 
BRANCH   9  10
ATOM     10  CG  LEU A   1     -16.801  -1.613 -19.134  0.00  0.00    +0.002 C 
ATOM     11  CD2 LEU A   1     -16.819  -0.397 -18.209  0.00  0.00    +0.000 C 
ATOM     12  CD1 LEU A   1     -15.556  -1.664 -19.951  0.00  0.00    +0.000 C 
ENDBRANCH   9  10
ENDBRANCH   6   9
ENDBRANCH   2   6
ENDBRANCH   1   3
BRANCH   1  13
ATOM     13  C   ARG A   2     -14.266  -7.411 -18.018  0.00  0.00    +0.227 C 
ATOM     14  O   ARG A   2     -13.144  -7.601 -18.509  0.00  0.00    -0.286 OA
ENDBRANCH   1  13
BRANCH   1  15
ATOM     15  CB  ARG A   2     -14.792  -6.928 -15.639  0.00  0.00    +0.031 C 
BRANCH  15  16
ATOM     16  CG  ARG A   2     -13.863  -8.100 -15.246  0.00  0.00    +0.045 C 
BRANCH  16  17
ATOM     17  CD  ARG A   2     -12.503  -7.599 -14.813  0.00  0.00    +0.174 C 
BRANCH  17  18
ATOM     18  NE  ARG A   2     -12.382  -7.469 -13.358  0.00  0.00    -0.265 N 
ATOM     19  CZ  ARG A   2     -12.328  -8.511 -12.512  0.00  0.00    +0.342 C 
ATOM     20  NH2 ARG A   2     -12.201  -8.311 -11.211  0.00  0.00    -0.292 N 
ATOM     21 HH21 ARG A   2     -12.160  -9.122 -10.562  0.00  0.00    +0.255 HD
ATOM     22 HH22 ARG A   2     -12.142  -7.342 -10.837  0.00  0.00    +0.255 HD
ATOM     23  NH1 ARG A   2     -12.412  -9.772 -12.963  0.00  0.00    -0.292 N 
ATOM     24 HH11 ARG A   2     -12.368 -10.567 -12.294  0.00  0.00    +0.255 HD
ATOM     25 HH12 ARG A   2     -12.521  -9.954 -13.981  0.00  0.00    +0.255 HD
ATOM     26  HE  ARG A   2     -12.335  -6.511 -12.956  0.00  0.00    +0.259 HD
ENDBRANCH  17  18
ENDBRANCH  16  17
ENDBRANCH  15  16
ENDBRANCH   1  15
TORSDOF 10
REMARK  Name = ../refined-set-2016/3vw1/3vw1_pocket.pdb
REMARK  263 active torsions:
REMARK  status: ('A' for Active; 'I' for Inactive)
REMARK    1  A    between atoms: _1  and  _3
REMARK    2  A    between atoms: _3  and  _4
REMARK    3  A    between atoms: _3  and  _6
REMARK    4  A    between atoms: _6  and  _7
REMARK    5  A    between atoms: _12  and  _13
REMARK    6  A    between atoms: _15  and  _17
REMARK    7  A    between atoms: _17  and  _18
REMARK    8  A    between atoms: _17  and  _20
REMARK    9  A    between atoms: _20  and  _21
REMARK   10  A    between atoms: _24  and  _26
REMARK   11  A    between atoms: _26  and  _27
REMARK   12  A    between atoms: _26  and  _29
REMARK   13  A    between atoms: _29  and  _30
REMARK   14  A    between atoms: _30  and  _31
REMARK   15  A    between atoms: _31  and  _32
REMARK   16  A    between atoms: _32  and  _33
REMARK   17  A    between atoms: _37  and  _39
REMARK   18  A    between atoms: _39  and  _40
REMARK   19  A    between atoms: _39  and  _42
REMARK   20  A    between atoms: _42  and  _43
REMARK   21  A    between atoms: _43  and  _44
REMARK   22  A    between atoms: _49  and  _51
REMARK   23  A    between atoms: _51  and  _52
REMARK   24  A    between atoms: _51  and  _54
REMARK   25  A    between atoms: _54  and  _55
REMARK   26  A    between atoms: _58  and  _60
REMARK   27  A    between atoms: _60  and  _61
REMARK   28  A    between atoms: _60  and  _63
REMARK   29  A    between atoms: _63  and  _64
REMARK   30  A    between atoms: _67  and  _69
REMARK   31  A    between atoms: _69  and  _70
REMARK   32  A    between atoms: _69  and  _72
REMARK   33  A    between atoms: _74  and  _76
REMARK   34  A    between atoms: _76  and  _77
REMARK   35  A    between atoms: _76  and  _79
REMARK   36  A    between atoms: _79  and  _80
REMARK   37  A    between atoms: _80  and  _81
REMARK   38  A    between atoms: _86  and  _88
REMARK   39  A    between atoms: _88  and  _89
REMARK   40  A    between atoms: _88  and  _91
REMARK   41  A    between atoms: _91  and  _92
REMARK   42  A    between atoms: _94  and  _96
REMARK   43  A    between atoms: _96  and  _97
REMARK   44  A    between atoms: _96  and  _99
REMARK   45  A    between atoms: _99  and  _100
REMARK   46  A    between atoms: _100  and  _101
REMARK   47  A    between atoms: _103  and  _105
REMARK   48  A    between atoms: _105  and  _106
REMARK   49  A    between atoms: _105  and  _108
REMARK   50  A    between atoms: _108  and  _109
REMARK   51  A    between atoms: _112  and  _114
REMARK   52  A    between atoms: _114  and  _115
REMARK   53  A    between atoms: _114  and  _117
REMARK   54  A    between atoms: _117  and  _118
REMARK   55  A    between atoms: _118  and  _119
REMARK   56  A    between atoms: _121  and  _123
REMARK   57  A    between atoms: _123  and  _124
REMARK   58  A    between atoms: _123  and  _126
REMARK   59  A    between atoms: _126  and  _127
REMARK   60  A    between atoms: _127  and  _128
REMARK   61  A    between atoms: _131  and  _133
REMARK   62  A    between atoms: _133  and  _134
REMARK   63  A    between atoms: _133  and  _136
REMARK   64  A    between atoms: _136  and  _137
REMARK   65  A    between atoms: _140  and  _142
REMARK   66  A    between atoms: _142  and  _143
REMARK   67  A    between atoms: _146  and  _148
REMARK   68  A    between atoms: _148  and  _149
REMARK   69  A    between atoms: _148  and  _151
REMARK   70  A    between atoms: _151  and  _152
REMARK   71  A    between atoms: _152  and  _153
REMARK   72  A    between atoms: _155  and  _157
REMARK   73  A    between atoms: _157  and  _158
REMARK   74  A    between atoms: _157  and  _160
REMARK   75  A    between atoms: _160  and  _161
REMARK   76  A    between atoms: _164  and  _166
REMARK   77  A    between atoms: _166  and  _167
REMARK   78  A    between atoms: _166  and  _169
REMARK   79  A    between atoms: _169  and  _170
REMARK   80  A    between atoms: _170  and  _171
REMARK   81  A    between atoms: _171  and  _172
REMARK   82  A    between atoms: _181  and  _183
REMARK   83  A    between atoms: _183  and  _184
REMARK   84  A    between atoms: _183  and  _186
REMARK   85  A    between atoms: _186  and  _187
REMARK   86  A    between atoms: _193  and  _195
REMARK   87  A    between atoms: _195  and  _196
REMARK   88  A    between atoms: _195  and  _198
REMARK   89  A    between atoms: _198  and  _199
REMARK   90  A    between atoms: _202  and  _204
REMARK   91  A    between atoms: _204  and  _205
REMARK   92  A    between atoms: _204  and  _207
REMARK   93  A    between atoms: _207  and  _208
REMARK   94  A    between atoms: _218  and  _220
REMARK   95  A    between atoms: _220  and  _221
REMARK   96  A    between atoms: _220  and  _223
REMARK   97  A    between atoms: _223  and  _224
REMARK   98  A    between atoms: _229  and  _231
REMARK   99  A    between atoms: _231  and  _232
REMARK  100  A    between atoms: _231  and  _234
REMARK  101  A    between atoms: _234  and  _235
REMARK  102  A    between atoms: _237  and  _239
REMARK  103  A    between atoms: _239  and  _240
REMARK  104  A    between atoms: _239  and  _242
REMARK  105  A    between atoms: _242  and  _243
REMARK  106  A    between atoms: _248  and  _249
REMARK  107  A    between atoms: _251  and  _253
REMARK  108  A    between atoms: _253  and  _254
REMARK  109  A    between atoms: _253  and  _256
REMARK  110  A    between atoms: _256  and  _257
REMARK  111  A    between atoms: _260  and  _262
REMARK  112  A    between atoms: _262  and  _263
REMARK  113  A    between atoms: _262  and  _265
REMARK  114  A    between atoms: _265  and  _266
REMARK  115  A    between atoms: _268  and  _270
REMARK  116  A    between atoms: _270  and  _271
REMARK  117  A    between atoms: _270  and  _273
REMARK  118  A    between atoms: _273  and  _274
REMARK  119  A    between atoms: _284  and  _286
REMARK  120  A    between atoms: _286  and  _287
REMARK  121  A    between atoms: _289  and  _291
REMARK  122  A    between atoms: _291  and  _292
REMARK  123  A    between atoms: _291  and  _294
REMARK  124  A    between atoms: _294  and  _295
REMARK  125  A    between atoms: _295  and  _296
REMARK  126  A    between atoms: _296  and  _297
REMARK  127  A    between atoms: _306  and  _308
REMARK  128  A    between atoms: _308  and  _309
REMARK  129  A    between atoms: _308  and  _311
REMARK  130  A    between atoms: _311  and  _312
REMARK  131  A    between atoms: _317  and  _319
REMARK  132  A    between atoms: _319  and  _320
REMARK  133  A    between atoms: _323  and  _325
REMARK  134  A    between atoms: _325  and  _326
REMARK  135  A    between atoms: _325  and  _328
REMARK  136  A    between atoms: _328  and  _329
REMARK  137  A    between atoms: _332  and  _334
REMARK  138  A    between atoms: _334  and  _335
REMARK  139  A    between atoms: _334  and  _337
REMARK  140  A    between atoms: _337  and  _338
REMARK  141  A    between atoms: _338  and  _339
REMARK  142  A    between atoms: _339  and  _340
REMARK  143  A    between atoms: _349  and  _351
REMARK  144  A    between atoms: _351  and  _352
REMARK  145  A    between atoms: _351  and  _354
REMARK  146  A    between atoms: _354  and  _355
REMARK  147  A    between atoms: _355  and  _356
REMARK  148  A    between atoms: _361  and  _363
REMARK  149  A    between atoms: _363  and  _364
REMARK  150  A    between atoms: _363  and  _366
REMARK  151  A    between atoms: _366  and  _367
REMARK  152  A    between atoms: _370  and  _372
REMARK  153  A    between atoms: _372  and  _373
REMARK  154  A    between atoms: _376  and  _378
REMARK  155  A    between atoms: _378  and  _379
REMARK  156  A    between atoms: _378  and  _381
REMARK  157  A    between atoms: _384  and  _386
REMARK  158  A    between atoms: _386  and  _387
REMARK  159  A    between atoms: _386  and  _389
REMARK  160  A    between atoms: _389  and  _390
REMARK  161  A    between atoms: _393  and  _395
REMARK  162  A    between atoms: _395  and  _396
REMARK  163  A    between atoms: _399  and  _401
REMARK  164  A    between atoms: _401  and  _402
REMARK  165  A    between atoms: _401  and  _404
REMARK  166  A    between atoms: _404  and  _405
REMARK  167  A    between atoms: _408  and  _410
REMARK  168  A    between atoms: _410  and  _411
REMARK  169  A    between atoms: _410  and  _413
REMARK  170  A    between atoms: _413  and  _414
REMARK  171  A    between atoms: _414  and  _415
REMARK  172  A    between atoms: _417  and  _419
REMARK  173  A    between atoms: _419  and  _420
REMARK  174  A    between atoms: _419  and  _422
REMARK  175  A    between atoms: _422  and  _423
REMARK  176  A    between atoms: _429  and  _431
REMARK  177  A    between atoms: _431  and  _432
REMARK  178  A    between atoms: _431  and  _434
REMARK  179  A    between atoms: _434  and  _435
REMARK  180  A    between atoms: _438  and  _440
REMARK  181  A    between atoms: _440  and  _441
REMARK  182  A    between atoms: _440  and  _443
REMARK  183  A    between atoms: _443  and  _444
REMARK  184  A    between atoms: _444  and  _445
REMARK  185  A    between atoms: _445  and  _446
REMARK  186  A    between atoms: _455  and  _457
REMARK  187  A    between atoms: _457  and  _458
REMARK  188  A    between atoms: _457  and  _460
REMARK  189  A    between atoms: _460  and  _461
REMARK  190  A    between atoms: _464  and  _466
REMARK  191  A    between atoms: _466  and  _467
REMARK  192  A    between atoms: _466  and  _469
REMARK  193  A    between atoms: _471  and  _473
REMARK  194  A    between atoms: _473  and  _474
REMARK  195  A    between atoms: _473  and  _476
REMARK  196  A    between atoms: _476  and  _477
REMARK  197  A    between atoms: _479  and  _481
REMARK  198  A    between atoms: _481  and  _482
REMARK  199  A    between atoms: _481  and  _484
REMARK  200  A    between atoms: _487  and  _489
REMARK  201  A    between atoms: _489  and  _490
REMARK  202  A    between atoms: _489  and  _492
REMARK  203  A    between atoms: _492  and  _493
REMARK  204  A    between atoms: _496  and  _498
REMARK  205  A    between atoms: _498  and  _499
REMARK  206  A    between atoms: _498  and  _501
REMARK  207  A    between atoms: _501  and  _502
REMARK  208  A    between atoms: _508  and  _510
REMARK  209  A    between atoms: _510  and  _511
REMARK  210  A    between atoms: _510  and  _513
REMARK  211  A    between atoms: _513  and  _514
REMARK  212  A    between atoms: _514  and  _515
REMARK  213  A    between atoms: _517  and  _519
REMARK  214  A    between atoms: _519  and  _520
REMARK  215  A    between atoms: _519  and  _522
REMARK  216  A    between atoms: _522  and  _523
REMARK  217  A    between atoms: _523  and  _524
REMARK  218  A    between atoms: _524  and  _525
REMARK  219  A    between atoms: _534  and  _536
REMARK  220  A    between atoms: _536  and  _537
REMARK  221  A    between atoms: _540  and  _542
REMARK  222  A    between atoms: _542  and  _543
REMARK  223  A    between atoms: _545  and  _547
REMARK  224  A    between atoms: _547  and  _548
REMARK  225  A    between atoms: _547  and  _550
REMARK  226  A    between atoms: _550  and  _551
REMARK  227  A    between atoms: _554  and  _556
REMARK  228  A    between atoms: _556  and  _557
REMARK  229  A    between atoms: _559  and  _561
REMARK  230  A    between atoms: _561  and  _562
REMARK  231  A    between atoms: _561  and  _564
REMARK  232  A    between atoms: _564  and  _565
REMARK  233  A    between atoms: _568  and  _570
REMARK  234  A    between atoms: _570  and  _571
REMARK  235  A    between atoms: _570  and  _573
REMARK  236  A    between atoms: _573  and  _574
REMARK  237  A    between atoms: _580  and  _582
REMARK  238  A    between atoms: _582  and  _583
REMARK  239  A    between atoms: _582  and  _585
REMARK  240  A    between atoms: _585  and  _586
REMARK  241  A    between atoms: _589  and  _591
REMARK  242  A    between atoms: _591  and  _592
REMARK  243  A    between atoms: _595  and  _597
REMARK  244  A    between atoms: _597  and  _598
REMARK  245  A    between atoms: _597  and  _600
REMARK  246  A    between atoms: _600  and  _601
REMARK  247  A    between atoms: _607  and  _609
REMARK  248  A    between atoms: _609  and  _610
REMARK  249  A    between atoms: _609  and  _612
REMARK  250  A    between atoms: _612  and  _613
REMARK  251  A    between atoms: _613  and  _614
REMARK  252  A    between atoms: _616  and  _618
REMARK  253  A    between atoms: _618  and  _619
REMARK  254  A    between atoms: _618  and  _621
REMARK  255  A    between atoms: _621  and  _622
REMARK  256  A    between atoms: _632  and  _634
REMARK  257  A    between atoms: _634  and  _635
REMARK  258  A    between atoms: _634  and  _637
REMARK  259  A    between atoms: _637  and  _638
REMARK  260  A    between atoms: _641  and  _643
REMARK  261  A    between atoms: _643  and  _644
REMARK  262  A    between atoms: _643  and  _646
REMARK  263  A    between atoms: _646  and  _647
REMARK                            x       y       z     vdW  Elec       q    Type
REMARK                         _______ _______ _______ _____ _____    ______ ____
ROOT
ATOM      1  C   LEU A   1     -13.570  -6.911 -22.595  0.00  0.00    +0.238 C 
ATOM      2  N   CYS A   2     -12.955  -6.385 -21.540  0.00  0.00    -0.298 N 
ATOM      3  H   CYS A   2     -13.516  -6.178 -20.689  0.00  0.00    +0.150 HD
ATOM      4  O   LEU A   1     -12.986  -7.171 -23.669  0.00  0.00    -0.274 OA
ENDROOT
BRANCH   1   5
ATOM      5  CA  LEU A   1     -15.095  -7.180 -22.409  0.00  0.00    +0.145 C 
BRANCH   5   6
ATOM      6  N   LEU A   1     -15.385  -7.651 -21.061  0.00  0.00    -0.238 NA
ATOM      7  H   LEU A   1     -15.918  -7.042 -20.408  0.00  0.00    +0.142 HD
ENDBRANCH   5   6
BRANCH   5   8
ATOM      8  CB  LEU A   1     -15.930  -5.925 -22.716  0.00  0.00    +0.026 C 
BRANCH   8   9
ATOM      9  CG  LEU A   1     -15.556  -5.214 -24.002  0.00  0.00    +0.002 C 
ATOM     10  CD2 LEU A   1     -16.479  -4.074 -24.190  0.00  0.00    +0.000 C 
ATOM     11  CD1 LEU A   1     -15.591  -6.113 -25.249  0.00  0.00    +0.000 C 
ENDBRANCH   8   9
ENDBRANCH   5   8
ENDBRANCH   1   5
BRANCH   2  12
ATOM     12  CA  CYS A   2     -11.518  -6.084 -21.525  0.00  0.00    +0.149 C 
BRANCH  12  13
ATOM     13  CB  CYS A   2     -11.201  -5.201 -20.313  0.00  0.00    +0.096 C 
ATOM     14  SG  CYS A   2     -11.828  -3.512 -20.659  0.00  0.00    -0.080 S 
ENDBRANCH  12  13
BRANCH  12  15
ATOM     15  C   CYS A   2     -10.692  -7.367 -21.549  0.00  0.00    +0.228 C 
ATOM     16  O   CYS A   2      -9.806  -7.527 -22.393  0.00  0.00    -0.286 OA
ENDBRANCH  12  15
ENDBRANCH   2  12
TORSDOF 7
REMARK  Name = ../refined-set-2016/3vw1/3vw1_pocket.pdb
REMARK  263 active torsions:
REMARK  status: ('A' for Active; 'I' for Inactive)
REMARK    1  A    between atoms: _1  and  _3
REMARK    2  A    between atoms: _3  and  _4
REMARK    3  A    between atoms: _3  and  _6
REMARK    4  A    between atoms: _6  and  _7
REMARK    5  A    between atoms: _12  and  _13
REMARK    6  A    between atoms: _15  and  _17
REMARK    7  A    between atoms: _17  and  _18
REMARK    8  A    between atoms: _17  and  _20
REMARK    9  A    between atoms: _20  and  _21
REMARK   10  A    between atoms: _24  and  _26
REMARK   11  A    between atoms: _26  and  _27
REMARK   12  A    between atoms: _26  and  _29
REMARK   13  A    between atoms: _29  and  _30
REMARK   14  A    between atoms: _30  and  _31
REMARK   15  A    between atoms: _31  and  _32
REMARK   16  A    between atoms: _32  and  _33
REMARK   17  A    between atoms: _37  and  _39
REMARK   18  A    between atoms: _39  and  _40
REMARK   19  A    between atoms: _39  and  _42
REMARK   20  A    between atoms: _42  and  _43
REMARK   21  A    between atoms: _43  and  _44
REMARK   22  A    between atoms: _49  and  _51
REMARK   23  A    between atoms: _51  and  _52
REMARK   24  A    between atoms: _51  and  _54
REMARK   25  A    between atoms: _54  and  _55
REMARK   26  A    between atoms: _58  and  _60
REMARK   27  A    between atoms: _60  and  _61
REMARK   28  A    between atoms: _60  and  _63
REMARK   29  A    between atoms: _63  and  _64
REMARK   30  A    between atoms: _67  and  _69
REMARK   31  A    between atoms: _69  and  _70
REMARK   32  A    between atoms: _69  and  _72
REMARK   33  A    between atoms: _74  and  _76
REMARK   34  A    between atoms: _76  and  _77
REMARK   35  A    between atoms: _76  and  _79
REMARK   36  A    between atoms: _79  and  _80
REMARK   37  A    between atoms: _80  and  _81
REMARK   38  A    between atoms: _86  and  _88
REMARK   39  A    between atoms: _88  and  _89
REMARK   40  A    between atoms: _88  and  _91
REMARK   41  A    between atoms: _91  and  _92
REMARK   42  A    between atoms: _94  and  _96
REMARK   43  A    between atoms: _96  and  _97
REMARK   44  A    between atoms: _96  and  _99
REMARK   45  A    between atoms: _99  and  _100
REMARK   46  A    between atoms: _100  and  _101
REMARK   47  A    between atoms: _103  and  _105
REMARK   48  A    between atoms: _105  and  _106
REMARK   49  A    between atoms: _105  and  _108
REMARK   50  A    between atoms: _108  and  _109
REMARK   51  A    between atoms: _112  and  _114
REMARK   52  A    between atoms: _114  and  _115
REMARK   53  A    between atoms: _114  and  _117
REMARK   54  A    between atoms: _117  and  _118
REMARK   55  A    between atoms: _118  and  _119
REMARK   56  A    between atoms: _121  and  _123
REMARK   57  A    between atoms: _123  and  _124
REMARK   58  A    between atoms: _123  and  _126
REMARK   59  A    between atoms: _126  and  _127
REMARK   60  A    between atoms: _127  and  _128
REMARK   61  A    between atoms: _131  and  _133
REMARK   62  A    between atoms: _133  and  _134
REMARK   63  A    between atoms: _133  and  _136
REMARK   64  A    between atoms: _136  and  _137
REMARK   65  A    between atoms: _140  and  _142
REMARK   66  A    between atoms: _142  and  _143
REMARK   67  A    between atoms: _146  and  _148
REMARK   68  A    between atoms: _148  and  _149
REMARK   69  A    between atoms: _148  and  _151
REMARK   70  A    between atoms: _151  and  _152
REMARK   71  A    between atoms: _152  and  _153
REMARK   72  A    between atoms: _155  and  _157
REMARK   73  A    between atoms: _157  and  _158
REMARK   74  A    between atoms: _157  and  _160
REMARK   75  A    between atoms: _160  and  _161
REMARK   76  A    between atoms: _164  and  _166
REMARK   77  A    between atoms: _166  and  _167
REMARK   78  A    between atoms: _166  and  _169
REMARK   79  A    between atoms: _169  and  _170
REMARK   80  A    between atoms: _170  and  _171
REMARK   81  A    between atoms: _171  and  _172
REMARK   82  A    between atoms: _181  and  _183
REMARK   83  A    between atoms: _183  and  _184
REMARK   84  A    between atoms: _183  and  _186
REMARK   85  A    between atoms: _186  and  _187
REMARK   86  A    between atoms: _193  and  _195
REMARK   87  A    between atoms: _195  and  _196
REMARK   88  A    between atoms: _195  and  _198
REMARK   89  A    between atoms: _198  and  _199
REMARK   90  A    between atoms: _202  and  _204
REMARK   91  A    between atoms: _204  and  _205
REMARK   92  A    between atoms: _204  and  _207
REMARK   93  A    between atoms: _207  and  _208
REMARK   94  A    between atoms: _218  and  _220
REMARK   95  A    between atoms: _220  and  _221
REMARK   96  A    between atoms: _220  and  _223
REMARK   97  A    between atoms: _223  and  _224
REMARK   98  A    between atoms: _229  and  _231
REMARK   99  A    between atoms: _231  and  _232
REMARK  100  A    between atoms: _231  and  _234
REMARK  101  A    between atoms: _234  and  _235
REMARK  102  A    between atoms: _237  and  _239
REMARK  103  A    between atoms: _239  and  _240
REMARK  104  A    between atoms: _239  and  _242
REMARK  105  A    between atoms: _242  and  _243
REMARK  106  A    between atoms: _248  and  _249
REMARK  107  A    between atoms: _251  and  _253
REMARK  108  A    between atoms: _253  and  _254
REMARK  109  A    between atoms: _253  and  _256
REMARK  110  A    between atoms: _256  and  _257
REMARK  111  A    between atoms: _260  and  _262
REMARK  112  A    between atoms: _262  and  _263
REMARK  113  A    between atoms: _262  and  _265
REMARK  114  A    between atoms: _265  and  _266
REMARK  115  A    between atoms: _268  and  _270
REMARK  116  A    between atoms: _270  and  _271
REMARK  117  A    between atoms: _270  and  _273
REMARK  118  A    between atoms: _273  and  _274
REMARK  119  A    between atoms: _284  and  _286
REMARK  120  A    between atoms: _286  and  _287
REMARK  121  A    between atoms: _289  and  _291
REMARK  122  A    between atoms: _291  and  _292
REMARK  123  A    between atoms: _291  and  _294
REMARK  124  A    between atoms: _294  and  _295
REMARK  125  A    between atoms: _295  and  _296
REMARK  126  A    between atoms: _296  and  _297
REMARK  127  A    between atoms: _306  and  _308
REMARK  128  A    between atoms: _308  and  _309
REMARK  129  A    between atoms: _308  and  _311
REMARK  130  A    between atoms: _311  and  _312
REMARK  131  A    between atoms: _317  and  _319
REMARK  132  A    between atoms: _319  and  _320
REMARK  133  A    between atoms: _323  and  _325
REMARK  134  A    between atoms: _325  and  _326
REMARK  135  A    between atoms: _325  and  _328
REMARK  136  A    between atoms: _328  and  _329
REMARK  137  A    between atoms: _332  and  _334
REMARK  138  A    between atoms: _334  and  _335
REMARK  139  A    between atoms: _334  and  _337
REMARK  140  A    between atoms: _337  and  _338
REMARK  141  A    between atoms: _338  and  _339
REMARK  142  A    between atoms: _339  and  _340
REMARK  143  A    between atoms: _349  and  _351
REMARK  144  A    between atoms: _351  and  _352
REMARK  145  A    between atoms: _351  and  _354
REMARK  146  A    between atoms: _354  and  _355
REMARK  147  A    between atoms: _355  and  _356
REMARK  148  A    between atoms: _361  and  _363
REMARK  149  A    between atoms: _363  and  _364
REMARK  150  A    between atoms: _363  and  _366
REMARK  151  A    between atoms: _366  and  _367
REMARK  152  A    between atoms: _370  and  _372
REMARK  153  A    between atoms: _372  and  _373
REMARK  154  A    between atoms: _376  and  _378
REMARK  155  A    between atoms: _378  and  _379
REMARK  156  A    between atoms: _378  and  _381
REMARK  157  A    between atoms: _384  and  _386
REMARK  158  A    between atoms: _386  and  _387
REMARK  159  A    between atoms: _386  and  _389
REMARK  160  A    between atoms: _389  and  _390
REMARK  161  A    between atoms: _393  and  _395
REMARK  162  A    between atoms: _395  and  _396
REMARK  163  A    between atoms: _399  and  _401
REMARK  164  A    between atoms: _401  and  _402
REMARK  165  A    between atoms: _401  and  _404
REMARK  166  A    between atoms: _404  and  _405
REMARK  167  A    between atoms: _408  and  _410
REMARK  168  A    between atoms: _410  and  _411
REMARK  169  A    between atoms: _410  and  _413
REMARK  170  A    between atoms: _413  and  _414
REMARK  171  A    between atoms: _414  and  _415
REMARK  172  A    between atoms: _417  and  _419
REMARK  173  A    between atoms: _419  and  _420
REMARK  174  A    between atoms: _419  and  _422
REMARK  175  A    between atoms: _422  and  _423
REMARK  176  A    between atoms: _429  and  _431
REMARK  177  A    between atoms: _431  and  _432
REMARK  178  A    between atoms: _431  and  _434
REMARK  179  A    between atoms: _434  and  _435
REMARK  180  A    between atoms: _438  and  _440
REMARK  181  A    between atoms: _440  and  _441
REMARK  182  A    between atoms: _440  and  _443
REMARK  183  A    between atoms: _443  and  _444
REMARK  184  A    between atoms: _444  and  _445
REMARK  185  A    between atoms: _445  and  _446
REMARK  186  A    between atoms: _455  and  _457
REMARK  187  A    between atoms: _457  and  _458
REMARK  188  A    between atoms: _457  and  _460
REMARK  189  A    between atoms: _460  and  _461
REMARK  190  A    between atoms: _464  and  _466
REMARK  191  A    between atoms: _466  and  _467
REMARK  192  A    between atoms: _466  and  _469
REMARK  193  A    between atoms: _471  and  _473
REMARK  194  A    between atoms: _473  and  _474
REMARK  195  A    between atoms: _473  and  _476
REMARK  196  A    between atoms: _476  and  _477
REMARK  197  A    between atoms: _479  and  _481
REMARK  198  A    between atoms: _481  and  _482
REMARK  199  A    between atoms: _481  and  _484
REMARK  200  A    between atoms: _487  and  _489
REMARK  201  A    between atoms: _489  and  _490
REMARK  202  A    between atoms: _489  and  _492
REMARK  203  A    between atoms: _492  and  _493
REMARK  204  A    between atoms: _496  and  _498
REMARK  205  A    between atoms: _498  and  _499
REMARK  206  A    between atoms: _498  and  _501
REMARK  207  A    between atoms: _501  and  _502
REMARK  208  A    between atoms: _508  and  _510
REMARK  209  A    between atoms: _510  and  _511
REMARK  210  A    between atoms: _510  and  _513
REMARK  211  A    between atoms: _513  and  _514
REMARK  212  A    between atoms: _514  and  _515
REMARK  213  A    between atoms: _517  and  _519
REMARK  214  A    between atoms: _519  and  _520
REMARK  215  A    between atoms: _519  and  _522
REMARK  216  A    between atoms: _522  and  _523
REMARK  217  A    between atoms: _523  and  _524
REMARK  218  A    between atoms: _524  and  _525
REMARK  219  A    between atoms: _534  and  _536
REMARK  220  A    between atoms: _536  and  _537
REMARK  221  A    between atoms: _540  and  _542
REMARK  222  A    between atoms: _542  and  _543
REMARK  223  A    between atoms: _545  and  _547
REMARK  224  A    between atoms: _547  and  _548
REMARK  225  A    between atoms: _547  and  _550
REMARK  226  A    between atoms: _550  and  _551
REMARK  227  A    between atoms: _554  and  _556
REMARK  228  A    between atoms: _556  and  _557
REMARK  229  A    between atoms: _559  and  _561
REMARK  230  A    between atoms: _561  and  _562
REMARK  231  A    between atoms: _561  and  _564
REMARK  232  A    between atoms: _564  and  _565
REMARK  233  A    between atoms: _568  and  _570
REMARK  234  A    between atoms: _570  and  _571
REMARK  235  A    between atoms: _570  and  _573
REMARK  236  A    between atoms: _573  and  _574
REMARK  237  A    between atoms: _580  and  _582
REMARK  238  A    between atoms: _582  and  _583
REMARK  239  A    between atoms: _582  and  _585
REMARK  240  A    between atoms: _585  and  _586
REMARK  241  A    between atoms: _589  and  _591
REMARK  242  A    between atoms: _591  and  _592
REMARK  243  A    between atoms: _595  and  _597
REMARK  244  A    between atoms: _597  and  _598
REMARK  245  A    between atoms: _597  and  _600
REMARK  246  A    between atoms: _600  and  _601
REMARK  247  A    between atoms: _607  and  _609
REMARK  248  A    between atoms: _609  and  _610
REMARK  249  A    between atoms: _609  and  _612
REMARK  250  A    between atoms: _612  and  _613
REMARK  251  A    between atoms: _613  and  _614
REMARK  252  A    between atoms: _616  and  _618
REMARK  253  A    between atoms: _618  and  _619
REMARK  254  A    between atoms: _618  and  _621
REMARK  255  A    between atoms: _621  and  _622
REMARK  256  A    between atoms: _632  and  _634
REMARK  257  A    between atoms: _634  and  _635
REMARK  258  A    between atoms: _634  and  _637
REMARK  259  A    between atoms: _637  and  _638
REMARK  260  A    between atoms: _641  and  _643
REMARK  261  A    between atoms: _643  and  _644
REMARK  262  A    between atoms: _643  and  _646
REMARK  263  A    between atoms: _646  and  _647
REMARK                            x       y       z     vdW  Elec       q    Type
REMARK                         _______ _______ _______ _____ _____    ______ ____
ROOT
ATOM      1  CA  VAL A   2      -7.396  -5.820 -24.563  0.00  0.00    +0.148 C 
ENDROOT
BRANCH   1   3
ATOM      2  C   SER A   1      -8.952  -6.923 -26.094  0.00  0.00    +0.241 C 
ATOM      3  N   VAL A   2      -8.622  -6.568 -24.865  0.00  0.00    -0.297 N 
ATOM      4  H   VAL A   2      -9.255  -6.828 -24.082  0.00  0.00    +0.150 HD
ATOM      5  O   SER A   1      -8.207  -6.761 -27.033  0.00  0.00    -0.274 OA
BRANCH   2   6
ATOM      6  CA  SER A   1     -10.314  -7.611 -26.286  0.00  0.00    +0.174 C 
BRANCH   6   7
ATOM      7  N   SER A   1     -10.800  -8.446 -25.151  0.00  0.00    -0.236 NA
ATOM      8  H   SER A   1     -10.991  -8.000 -24.231  0.00  0.00    +0.142 HD
ENDBRANCH   6   7
BRANCH   6   9
ATOM      9  CB  SER A   1     -11.396  -6.598 -26.663  0.00  0.00    +0.163 C 
BRANCH   9  10
ATOM     10  OG  SER A   1     -11.784  -5.883 -25.487  0.00  0.00    -0.380 OA
ATOM     11  H   SER A   1     -12.138  -6.520 -24.817  0.00  0.00    +0.211 HD
ENDBRANCH   9  10
ENDBRANCH   6   9
ENDBRANCH   2   6
ENDBRANCH   1   3
BRANCH   1  12
ATOM     12  C   VAL A   2      -6.101  -6.681 -24.668  0.00  0.00    +0.241 C 
ATOM     13  O   VAL A   2      -6.095  -7.839 -24.279  0.00  0.00    -0.273 OA
ATOM     14  N   LEU A   3      -5.015  -6.089 -25.144  0.00  0.00    -0.298 N 
ATOM     15  H   LEU A   3      -5.091  -5.123 -25.521  0.00  0.00    +0.150 HD
BRANCH  14  16
ATOM     16  CA  LEU A   3      -3.721  -6.750 -25.155  0.00  0.00    +0.137 C 
BRANCH  16  17
ATOM     17  C   LEU A   3      -3.419  -7.252 -23.753  0.00  0.00    +0.227 C 
ATOM     18  O   LEU A   3      -3.515  -6.495 -22.805  0.00  0.00    -0.286 OA
ENDBRANCH  16  17
BRANCH  16  19
ATOM     19  CB  LEU A   3      -2.604  -5.746 -25.533  0.00  0.00    +0.028 C 
BRANCH  19  20
ATOM     20  CG  LEU A   3      -2.127  -5.536 -26.939  0.00  0.00    +0.002 C 
ATOM     21  CD2 LEU A   3      -2.445  -4.107 -27.366  0.00  0.00    +0.000 C 
ATOM     22  CD1 LEU A   3      -2.735  -6.548 -27.993  0.00  0.00    +0.000 C 
ENDBRANCH  19  20
ENDBRANCH  16  19
ENDBRANCH  14  16
ENDBRANCH   1  12
BRANCH   1  23
ATOM     23  CB  VAL A   2      -7.472  -5.161 -23.130  0.00  0.00    +0.027 C 
ATOM     24  CG2 VAL A   2      -6.157  -4.412 -22.860  0.00  0.00    +0.002 C 
ATOM     25  CG1 VAL A   2      -8.678  -4.142 -23.040  0.00  0.00    +0.002 C 
ENDBRANCH   1  23
TORSDOF 11
REMARK  Name = ../refined-set-2016/3vw1/3vw1_pocket.pdb
REMARK  263 active torsions:
REMARK  status: ('A' for Active; 'I' for Inactive)
REMARK    1  A    between atoms: _1  and  _3
REMARK    2  A    between atoms: _3  and  _4
REMARK    3  A    between atoms: _3  and  _6
REMARK    4  A    between atoms: _6  and  _7
REMARK    5  A    between atoms: _12  and  _13
REMARK    6  A    between atoms: _15  and  _17
REMARK    7  A    between atoms: _17  and  _18
REMARK    8  A    between atoms: _17  and  _20
REMARK    9  A    between atoms: _20  and  _21
REMARK   10  A    between atoms: _24  and  _26
REMARK   11  A    between atoms: _26  and  _27
REMARK   12  A    between atoms: _26  and  _29
REMARK   13  A    between atoms: _29  and  _30
REMARK   14  A    between atoms: _30  and  _31
REMARK   15  A    between atoms: _31  and  _32
REMARK   16  A    between atoms: _32  and  _33
REMARK   17  A    between atoms: _37  and  _39
REMARK   18  A    between atoms: _39  and  _40
REMARK   19  A    between atoms: _39  and  _42
REMARK   20  A    between atoms: _42  and  _43
REMARK   21  A    between atoms: _43  and  _44
REMARK   22  A    between atoms: _49  and  _51
REMARK   23  A    between atoms: _51  and  _52
REMARK   24  A    between atoms: _51  and  _54
REMARK   25  A    between atoms: _54  and  _55
REMARK   26  A    between atoms: _58  and  _60
REMARK   27  A    between atoms: _60  and  _61
REMARK   28  A    between atoms: _60  and  _63
REMARK   29  A    between atoms: _63  and  _64
REMARK   30  A    between atoms: _67  and  _69
REMARK   31  A    between atoms: _69  and  _70
REMARK   32  A    between atoms: _69  and  _72
REMARK   33  A    between atoms: _74  and  _76
REMARK   34  A    between atoms: _76  and  _77
REMARK   35  A    between atoms: _76  and  _79
REMARK   36  A    between atoms: _79  and  _80
REMARK   37  A    between atoms: _80  and  _81
REMARK   38  A    between atoms: _86  and  _88
REMARK   39  A    between atoms: _88  and  _89
REMARK   40  A    between atoms: _88  and  _91
REMARK   41  A    between atoms: _91  and  _92
REMARK   42  A    between atoms: _94  and  _96
REMARK   43  A    between atoms: _96  and  _97
REMARK   44  A    between atoms: _96  and  _99
REMARK   45  A    between atoms: _99  and  _100
REMARK   46  A    between atoms: _100  and  _101
REMARK   47  A    between atoms: _103  and  _105
REMARK   48  A    between atoms: _105  and  _106
REMARK   49  A    between atoms: _105  and  _108
REMARK   50  A    between atoms: _108  and  _109
REMARK   51  A    between atoms: _112  and  _114
REMARK   52  A    between atoms: _114  and  _115
REMARK   53  A    between atoms: _114  and  _117
REMARK   54  A    between atoms: _117  and  _118
REMARK   55  A    between atoms: _118  and  _119
REMARK   56  A    between atoms: _121  and  _123
REMARK   57  A    between atoms: _123  and  _124
REMARK   58  A    between atoms: _123  and  _126
REMARK   59  A    between atoms: _126  and  _127
REMARK   60  A    between atoms: _127  and  _128
REMARK   61  A    between atoms: _131  and  _133
REMARK   62  A    between atoms: _133  and  _134
REMARK   63  A    between atoms: _133  and  _136
REMARK   64  A    between atoms: _136  and  _137
REMARK   65  A    between atoms: _140  and  _142
REMARK   66  A    between atoms: _142  and  _143
REMARK   67  A    between atoms: _146  and  _148
REMARK   68  A    between atoms: _148  and  _149
REMARK   69  A    between atoms: _148  and  _151
REMARK   70  A    between atoms: _151  and  _152
REMARK   71  A    between atoms: _152  and  _153
REMARK   72  A    between atoms: _155  and  _157
REMARK   73  A    between atoms: _157  and  _158
REMARK   74  A    between atoms: _157  and  _160
REMARK   75  A    between atoms: _160  and  _161
REMARK   76  A    between atoms: _164  and  _166
REMARK   77  A    between atoms: _166  and  _167
REMARK   78  A    between atoms: _166  and  _169
REMARK   79  A    between atoms: _169  and  _170
REMARK   80  A    between atoms: _170  and  _171
REMARK   81  A    between atoms: _171  and  _172
REMARK   82  A    between atoms: _181  and  _183
REMARK   83  A    between atoms: _183  and  _184
REMARK   84  A    between atoms: _183  and  _186
REMARK   85  A    between atoms: _186  and  _187
REMARK   86  A    between atoms: _193  and  _195
REMARK   87  A    between atoms: _195  and  _196
REMARK   88  A    between atoms: _195  and  _198
REMARK   89  A    between atoms: _198  and  _199
REMARK   90  A    between atoms: _202  and  _204
REMARK   91  A    between atoms: _204  and  _205
REMARK   92  A    between atoms: _204  and  _207
REMARK   93  A    between atoms: _207  and  _208
REMARK   94  A    between atoms: _218  and  _220
REMARK   95  A    between atoms: _220  and  _221
REMARK   96  A    between atoms: _220  and  _223
REMARK   97  A    between atoms: _223  and  _224
REMARK   98  A    between atoms: _229  and  _231
REMARK   99  A    between atoms: _231  and  _232
REMARK  100  A    between atoms: _231  and  _234
REMARK  101  A    between atoms: _234  and  _235
REMARK  102  A    between atoms: _237  and  _239
REMARK  103  A    between atoms: _239  and  _240
REMARK  104  A    between atoms: _239  and  _242
REMARK  105  A    between atoms: _242  and  _243
REMARK  106  A    between atoms: _248  and  _249
REMARK  107  A    between atoms: _251  and  _253
REMARK  108  A    between atoms: _253  and  _254
REMARK  109  A    between atoms: _253  and  _256
REMARK  110  A    between atoms: _256  and  _257
REMARK  111  A    between atoms: _260  and  _262
REMARK  112  A    between atoms: _262  and  _263
REMARK  113  A    between atoms: _262  and  _265
REMARK  114  A    between atoms: _265  and  _266
REMARK  115  A    between atoms: _268  and  _270
REMARK  116  A    between atoms: _270  and  _271
REMARK  117  A    between atoms: _270  and  _273
REMARK  118  A    between atoms: _273  and  _274
REMARK  119  A    between atoms: _284  and  _286
REMARK  120  A    between atoms: _286  and  _287
REMARK  121  A    between atoms: _289  and  _291
REMARK  122  A    between atoms: _291  and  _292
REMARK  123  A    between atoms: _291  and  _294
REMARK  124  A    between atoms: _294  and  _295
REMARK  125  A    between atoms: _295  and  _296
REMARK  126  A    between atoms: _296  and  _297
REMARK  127  A    between atoms: _306  and  _308
REMARK  128  A    between atoms: _308  and  _309
REMARK  129  A    between atoms: _308  and  _311
REMARK  130  A    between atoms: _311  and  _312
REMARK  131  A    between atoms: _317  and  _319
REMARK  132  A    between atoms: _319  and  _320
REMARK  133  A    between atoms: _323  and  _325
REMARK  134  A    between atoms: _325  and  _326
REMARK  135  A    between atoms: _325  and  _328
REMARK  136  A    between atoms: _328  and  _329
REMARK  137  A    between atoms: _332  and  _334
REMARK  138  A    between atoms: _334  and  _335
REMARK  139  A    between atoms: _334  and  _337
REMARK  140  A    between atoms: _337  and  _338
REMARK  141  A    between atoms: _338  and  _339
REMARK  142  A    between atoms: _339  and  _340
REMARK  143  A    between atoms: _349  and  _351
REMARK  144  A    between atoms: _351  and  _352
REMARK  145  A    between atoms: _351  and  _354
REMARK  146  A    between atoms: _354  and  _355
REMARK  147  A    between atoms: _355  and  _356
REMARK  148  A    between atoms: _361  and  _363
REMARK  149  A    between atoms: _363  and  _364
REMARK  150  A    between atoms: _363  and  _366
REMARK  151  A    between atoms: _366  and  _367
REMARK  152  A    between atoms: _370  and  _372
REMARK  153  A    between atoms: _372  and  _373
REMARK  154  A    between atoms: _376  and  _378
REMARK  155  A    between atoms: _378  and  _379
REMARK  156  A    between atoms: _378  and  _381
REMARK  157  A    between atoms: _384  and  _386
REMARK  158  A    between atoms: _386  and  _387
REMARK  159  A    between atoms: _386  and  _389
REMARK  160  A    between atoms: _389  and  _390
REMARK  161  A    between atoms: _393  and  _395
REMARK  162  A    between atoms: _395  and  _396
REMARK  163  A    between atoms: _399  and  _401
REMARK  164  A    between atoms: _401  and  _402
REMARK  165  A    between atoms: _401  and  _404
REMARK  166  A    between atoms: _404  and  _405
REMARK  167  A    between atoms: _408  and  _410
REMARK  168  A    between atoms: _410  and  _411
REMARK  169  A    between atoms: _410  and  _413
REMARK  170  A    between atoms: _413  and  _414
REMARK  171  A    between atoms: _414  and  _415
REMARK  172  A    between atoms: _417  and  _419
REMARK  173  A    between atoms: _419  and  _420
REMARK  174  A    between atoms: _419  and  _422
REMARK  175  A    between atoms: _422  and  _423
REMARK  176  A    between atoms: _429  and  _431
REMARK  177  A    between atoms: _431  and  _432
REMARK  178  A    between atoms: _431  and  _434
REMARK  179  A    between atoms: _434  and  _435
REMARK  180  A    between atoms: _438  and  _440
REMARK  181  A    between atoms: _440  and  _441
REMARK  182  A    between atoms: _440  and  _443
REMARK  183  A    between atoms: _443  and  _444
REMARK  184  A    between atoms: _444  and  _445
REMARK  185  A    between atoms: _445  and  _446
REMARK  186  A    between atoms: _455  and  _457
REMARK  187  A    between atoms: _457  and  _458
REMARK  188  A    between atoms: _457  and  _460
REMARK  189  A    between atoms: _460  and  _461
REMARK  190  A    between atoms: _464  and  _466
REMARK  191  A    between atoms: _466  and  _467
REMARK  192  A    between atoms: _466  and  _469
REMARK  193  A    between atoms: _471  and  _473
REMARK  194  A    between atoms: _473  and  _474
REMARK  195  A    between atoms: _473  and  _476
REMARK  196  A    between atoms: _476  and  _477
REMARK  197  A    between atoms: _479  and  _481
REMARK  198  A    between atoms: _481  and  _482
REMARK  199  A    between atoms: _481  and  _484
REMARK  200  A    between atoms: _487  and  _489
REMARK  201  A    between atoms: _489  and  _490
REMARK  202  A    between atoms: _489  and  _492
REMARK  203  A    between atoms: _492  and  _493
REMARK  204  A    between atoms: _496  and  _498
REMARK  205  A    between atoms: _498  and  _499
REMARK  206  A    between atoms: _498  and  _501
REMARK  207  A    between atoms: _501  and  _502
REMARK  208  A    between atoms: _508  and  _510
REMARK  209  A    between atoms: _510  and  _511
REMARK  210  A    between atoms: _510  and  _513
REMARK  211  A    between atoms: _513  and  _514
REMARK  212  A    between atoms: _514  and  _515
REMARK  213  A    between atoms: _517  and  _519
REMARK  214  A    between atoms: _519  and  _520
REMARK  215  A    between atoms: _519  and  _522
REMARK  216  A    between atoms: _522  and  _523
REMARK  217  A    between atoms: _523  and  _524
REMARK  218  A    between atoms: _524  and  _525
REMARK  219  A    between atoms: _534  and  _536
REMARK  220  A    between atoms: _536  and  _537
REMARK  221  A    between atoms: _540  and  _542
REMARK  222  A    between atoms: _542  and  _543
REMARK  223  A    between atoms: _545  and  _547
REMARK  224  A    between atoms: _547  and  _548
REMARK  225  A    between atoms: _547  and  _550
REMARK  226  A    between atoms: _550  and  _551
REMARK  227  A    between atoms: _554  and  _556
REMARK  228  A    between atoms: _556  and  _557
REMARK  229  A    between atoms: _559  and  _561
REMARK  230  A    between atoms: _561  and  _562
REMARK  231  A    between atoms: _561  and  _564
REMARK  232  A    between atoms: _564  and  _565
REMARK  233  A    between atoms: _568  and  _570
REMARK  234  A    between atoms: _570  and  _571
REMARK  235  A    between atoms: _570  and  _573
REMARK  236  A    between atoms: _573  and  _574
REMARK  237  A    between atoms: _580  and  _582
REMARK  238  A    between atoms: _582  and  _583
REMARK  239  A    between atoms: _582  and  _585
REMARK  240  A    between atoms: _585  and  _586
REMARK  241  A    between atoms: _589  and  _591
REMARK  242  A    between atoms: _591  and  _592
REMARK  243  A    between atoms: _595  and  _597
REMARK  244  A    between atoms: _597  and  _598
REMARK  245  A    between atoms: _597  and  _600
REMARK  246  A    between atoms: _600  and  _601
REMARK  247  A    between atoms: _607  and  _609
REMARK  248  A    between atoms: _609  and  _610
REMARK  249  A    between atoms: _609  and  _612
REMARK  250  A    between atoms: _612  and  _613
REMARK  251  A    between atoms: _613  and  _614
REMARK  252  A    between atoms: _616  and  _618
REMARK  253  A    between atoms: _618  and  _619
REMARK  254  A    between atoms: _618  and  _621
REMARK  255  A    between atoms: _621  and  _622
REMARK  256  A    between atoms: _632  and  _634
REMARK  257  A    between atoms: _634  and  _635
REMARK  258  A    between atoms: _634  and  _637
REMARK  259  A    between atoms: _637  and  _638
REMARK  260  A    between atoms: _641  and  _643
REMARK  261  A    between atoms: _643  and  _644
REMARK  262  A    between atoms: _643  and  _646
REMARK  263  A    between atoms: _646  and  _647
REMARK                            x       y       z     vdW  Elec       q    Type
REMARK                         _______ _______ _______ _____ _____    ______ ____
ROOT
ATOM      1  C   PHE A   1      -3.363  -4.711 -19.372  0.00  0.00    +0.239 C 
ATOM      2  O   PHE A   1      -4.042  -3.906 -18.734  0.00  0.00    -0.274 OA
ATOM      3  N   MET A   2      -3.446  -6.023 -19.209  0.00  0.00    -0.298 N 
ATOM      4  H   MET A   2      -2.869  -6.664 -19.790  0.00  0.00    +0.150 HD
ENDROOT
BRANCH   1   5
ATOM      5  CA  PHE A   1      -2.344  -4.216 -20.390  0.00  0.00    +0.149 C 
BRANCH   5   6
ATOM      6  N   PHE A   1      -1.636  -5.311 -21.046  0.00  0.00    -0.238 NA
ATOM      7  H   PHE A   1      -1.972  -5.647 -21.971  0.00  0.00    +0.142 HD
ENDBRANCH   5   6
BRANCH   5   8
ATOM      8  CB  PHE A   1      -3.019  -3.280 -21.421  0.00  0.00    +0.053 C 
BRANCH   8   9
ATOM      9  CG  PHE A   1      -1.969  -2.369 -22.183  0.00  0.00    -0.020 A 
ATOM     10  CD2 PHE A   1      -1.101  -1.577 -21.488  0.00  0.00    -0.004 A 
ATOM     11  CE2 PHE A   1      -0.160  -0.724 -22.179  0.00  0.00    -0.000 A 
ATOM     12  CZ  PHE A   1      -0.147  -0.714 -23.562  0.00  0.00    -0.000 A 
ATOM     13  CE1 PHE A   1      -1.012  -1.527 -24.255  0.00  0.00    -0.000 A 
ATOM     14  CD1 PHE A   1      -1.940  -2.337 -23.547  0.00  0.00    -0.004 A 
ENDBRANCH   8   9
ENDBRANCH   5   8
ENDBRANCH   1   5
BRANCH   3  15
ATOM     15  CA  MET A   2      -4.335  -6.543 -18.228  0.00  0.00    +0.138 C 
BRANCH  15  16
ATOM     16  C   MET A   2      -3.520  -7.051 -17.008  0.00  0.00    +0.227 C 
ATOM     17  O   MET A   2      -4.080  -7.466 -16.016  0.00  0.00    -0.286 OA
ENDBRANCH  15  16
BRANCH  15  18
ATOM     18  CB  MET A   2      -5.162  -7.701 -18.866  0.00  0.00    +0.039 C 
BRANCH  18  19
ATOM     19  CG  MET A   2      -6.592  -7.576 -18.558  0.00  0.00    +0.060 C 
BRANCH  19  20
ATOM     20  SD  MET A   2      -7.275  -5.973 -19.060  0.00  0.00    -0.139 S 
ATOM     21  CE  MET A   2      -7.783  -6.488 -20.622  0.00  0.00    +0.069 C 
ENDBRANCH  19  20
ENDBRANCH  18  19
ENDBRANCH  15  18
ENDBRANCH   3  15
TORSDOF 9
REMARK  Name = ../refined-set-2016/3vw1/3vw1_pocket.pdb
REMARK  263 active torsions:
REMARK  status: ('A' for Active; 'I' for Inactive)
REMARK    1  A    between atoms: _1  and  _3
REMARK    2  A    between atoms: _3  and  _4
REMARK    3  A    between atoms: _3  and  _6
REMARK    4  A    between atoms: _6  and  _7
REMARK    5  A    between atoms: _12  and  _13
REMARK    6  A    between atoms: _15  and  _17
REMARK    7  A    between atoms: _17  and  _18
REMARK    8  A    between atoms: _17  and  _20
REMARK    9  A    between atoms: _20  and  _21
REMARK   10  A    between atoms: _24  and  _26
REMARK   11  A    between atoms: _26  and  _27
REMARK   12  A    between atoms: _26  and  _29
REMARK   13  A    between atoms: _29  and  _30
REMARK   14  A    between atoms: _30  and  _31
REMARK   15  A    between atoms: _31  and  _32
REMARK   16  A    between atoms: _32  and  _33
REMARK   17  A    between atoms: _37  and  _39
REMARK   18  A    between atoms: _39  and  _40
REMARK   19  A    between atoms: _39  and  _42
REMARK   20  A    between atoms: _42  and  _43
REMARK   21  A    between atoms: _43  and  _44
REMARK   22  A    between atoms: _49  and  _51
REMARK   23  A    between atoms: _51  and  _52
REMARK   24  A    between atoms: _51  and  _54
REMARK   25  A    between atoms: _54  and  _55
REMARK   26  A    between atoms: _58  and  _60
REMARK   27  A    between atoms: _60  and  _61
REMARK   28  A    between atoms: _60  and  _63
REMARK   29  A    between atoms: _63  and  _64
REMARK   30  A    between atoms: _67  and  _69
REMARK   31  A    between atoms: _69  and  _70
REMARK   32  A    between atoms: _69  and  _72
REMARK   33  A    between atoms: _74  and  _76
REMARK   34  A    between atoms: _76  and  _77
REMARK   35  A    between atoms: _76  and  _79
REMARK   36  A    between atoms: _79  and  _80
REMARK   37  A    between atoms: _80  and  _81
REMARK   38  A    between atoms: _86  and  _88
REMARK   39  A    between atoms: _88  and  _89
REMARK   40  A    between atoms: _88  and  _91
REMARK   41  A    between atoms: _91  and  _92
REMARK   42  A    between atoms: _94  and  _96
REMARK   43  A    between atoms: _96  and  _97
REMARK   44  A    between atoms: _96  and  _99
REMARK   45  A    between atoms: _99  and  _100
REMARK   46  A    between atoms: _100  and  _101
REMARK   47  A    between atoms: _103  and  _105
REMARK   48  A    between atoms: _105  and  _106
REMARK   49  A    between atoms: _105  and  _108
REMARK   50  A    between atoms: _108  and  _109
REMARK   51  A    between atoms: _112  and  _114
REMARK   52  A    between atoms: _114  and  _115
REMARK   53  A    between atoms: _114  and  _117
REMARK   54  A    between atoms: _117  and  _118
REMARK   55  A    between atoms: _118  and  _119
REMARK   56  A    between atoms: _121  and  _123
REMARK   57  A    between atoms: _123  and  _124
REMARK   58  A    between atoms: _123  and  _126
REMARK   59  A    between atoms: _126  and  _127
REMARK   60  A    between atoms: _127  and  _128
REMARK   61  A    between atoms: _131  and  _133
REMARK   62  A    between atoms: _133  and  _134
REMARK   63  A    between atoms: _133  and  _136
REMARK   64  A    between atoms: _136  and  _137
REMARK   65  A    between atoms: _140  and  _142
REMARK   66  A    between atoms: _142  and  _143
REMARK   67  A    between atoms: _146  and  _148
REMARK   68  A    between atoms: _148  and  _149
REMARK   69  A    between atoms: _148  and  _151
REMARK   70  A    between atoms: _151  and  _152
REMARK   71  A    between atoms: _152  and  _153
REMARK   72  A    between atoms: _155  and  _157
REMARK   73  A    between atoms: _157  and  _158
REMARK   74  A    between atoms: _157  and  _160
REMARK   75  A    between atoms: _160  and  _161
REMARK   76  A    between atoms: _164  and  _166
REMARK   77  A    between atoms: _166  and  _167
REMARK   78  A    between atoms: _166  and  _169
REMARK   79  A    between atoms: _169  and  _170
REMARK   80  A    between atoms: _170  and  _171
REMARK   81  A    between atoms: _171  and  _172
REMARK   82  A    between atoms: _181  and  _183
REMARK   83  A    between atoms: _183  and  _184
REMARK   84  A    between atoms: _183  and  _186
REMARK   85  A    between atoms: _186  and  _187
REMARK   86  A    between atoms: _193  and  _195
REMARK   87  A    between atoms: _195  and  _196
REMARK   88  A    between atoms: _195  and  _198
REMARK   89  A    between atoms: _198  and  _199
REMARK   90  A    between atoms: _202  and  _204
REMARK   91  A    between atoms: _204  and  _205
REMARK   92  A    between atoms: _204  and  _207
REMARK   93  A    between atoms: _207  and  _208
REMARK   94  A    between atoms: _218  and  _220
REMARK   95  A    between atoms: _220  and  _221
REMARK   96  A    between atoms: _220  and  _223
REMARK   97  A    between atoms: _223  and  _224
REMARK   98  A    between atoms: _229  and  _231
REMARK   99  A    between atoms: _231  and  _232
REMARK  100  A    between atoms: _231  and  _234
REMARK  101  A    between atoms: _234  and  _235
REMARK  102  A    between atoms: _237  and  _239
REMARK  103  A    between atoms: _239  and  _240
REMARK  104  A    between atoms: _239  and  _242
REMARK  105  A    between atoms: _242  and  _243
REMARK  106  A    between atoms: _248  and  _249
REMARK  107  A    between atoms: _251  and  _253
REMARK  108  A    between atoms: _253  and  _254
REMARK  109  A    between atoms: _253  and  _256
REMARK  110  A    between atoms: _256  and  _257
REMARK  111  A    between atoms: _260  and  _262
REMARK  112  A    between atoms: _262  and  _263
REMARK  113  A    between atoms: _262  and  _265
REMARK  114  A    between atoms: _265  and  _266
REMARK  115  A    between atoms: _268  and  _270
REMARK  116  A    between atoms: _270  and  _271
REMARK  117  A    between atoms: _270  and  _273
REMARK  118  A    between atoms: _273  and  _274
REMARK  119  A    between atoms: _284  and  _286
REMARK  120  A    between atoms: _286  and  _287
REMARK  121  A    between atoms: _289  and  _291
REMARK  122  A    between atoms: _291  and  _292
REMARK  123  A    between atoms: _291  and  _294
REMARK  124  A    between atoms: _294  and  _295
REMARK  125  A    between atoms: _295  and  _296
REMARK  126  A    between atoms: _296  and  _297
REMARK  127  A    between atoms: _306  and  _308
REMARK  128  A    between atoms: _308  and  _309
REMARK  129  A    between atoms: _308  and  _311
REMARK  130  A    between atoms: _311  and  _312
REMARK  131  A    between atoms: _317  and  _319
REMARK  132  A    between atoms: _319  and  _320
REMARK  133  A    between atoms: _323  and  _325
REMARK  134  A    between atoms: _325  and  _326
REMARK  135  A    between atoms: _325  and  _328
REMARK  136  A    between atoms: _328  and  _329
REMARK  137  A    between atoms: _332  and  _334
REMARK  138  A    between atoms: _334  and  _335
REMARK  139  A    between atoms: _334  and  _337
REMARK  140  A    between atoms: _337  and  _338
REMARK  141  A    between atoms: _338  and  _339
REMARK  142  A    between atoms: _339  and  _340
REMARK  143  A    between atoms: _349  and  _351
REMARK  144  A    between atoms: _351  and  _352
REMARK  145  A    between atoms: _351  and  _354
REMARK  146  A    between atoms: _354  and  _355
REMARK  147  A    between atoms: _355  and  _356
REMARK  148  A    between atoms: _361  and  _363
REMARK  149  A    between atoms: _363  and  _364
REMARK  150  A    between atoms: _363  and  _366
REMARK  151  A    between atoms: _366  and  _367
REMARK  152  A    between atoms: _370  and  _372
REMARK  153  A    between atoms: _372  and  _373
REMARK  154  A    between atoms: _376  and  _378
REMARK  155  A    between atoms: _378  and  _379
REMARK  156  A    between atoms: _378  and  _381
REMARK  157  A    between atoms: _384  and  _386
REMARK  158  A    between atoms: _386  and  _387
REMARK  159  A    between atoms: _386  and  _389
REMARK  160  A    between atoms: _389  and  _390
REMARK  161  A    between atoms: _393  and  _395
REMARK  162  A    between atoms: _395  and  _396
REMARK  163  A    between atoms: _399  and  _401
REMARK  164  A    between atoms: _401  and  _402
REMARK  165  A    between atoms: _401  and  _404
REMARK  166  A    between atoms: _404  and  _405
REMARK  167  A    between atoms: _408  and  _410
REMARK  168  A    between atoms: _410  and  _411
REMARK  169  A    between atoms: _410  and  _413
REMARK  170  A    between atoms: _413  and  _414
REMARK  171  A    between atoms: _414  and  _415
REMARK  172  A    between atoms: _417  and  _419
REMARK  173  A    between atoms: _419  and  _420
REMARK  174  A    between atoms: _419  and  _422
REMARK  175  A    between atoms: _422  and  _423
REMARK  176  A    between atoms: _429  and  _431
REMARK  177  A    between atoms: _431  and  _432
REMARK  178  A    between atoms: _431  and  _434
REMARK  179  A    between atoms: _434  and  _435
REMARK  180  A    between atoms: _438  and  _440
REMARK  181  A    between atoms: _440  and  _441
REMARK  182  A    between atoms: _440  and  _443
REMARK  183  A    between atoms: _443  and  _444
REMARK  184  A    between atoms: _444  and  _445
REMARK  185  A    between atoms: _445  and  _446
REMARK  186  A    between atoms: _455  and  _457
REMARK  187  A    between atoms: _457  and  _458
REMARK  188  A    between atoms: _457  and  _460
REMARK  189  A    between atoms: _460  and  _461
REMARK  190  A    between atoms: _464  and  _466
REMARK  191  A    between atoms: _466  and  _467
REMARK  192  A    between atoms: _466  and  _469
REMARK  193  A    between atoms: _471  and  _473
REMARK  194  A    between atoms: _473  and  _474
REMARK  195  A    between atoms: _473  and  _476
REMARK  196  A    between atoms: _476  and  _477
REMARK  197  A    between atoms: _479  and  _481
REMARK  198  A    between atoms: _481  and  _482
REMARK  199  A    between atoms: _481  and  _484
REMARK  200  A    between atoms: _487  and  _489
REMARK  201  A    between atoms: _489  and  _490
REMARK  202  A    between atoms: _489  and  _492
REMARK  203  A    between atoms: _492  and  _493
REMARK  204  A    between atoms: _496  and  _498
REMARK  205  A    between atoms: _498  and  _499
REMARK  206  A    between atoms: _498  and  _501
REMARK  207  A    between atoms: _501  and  _502
REMARK  208  A    between atoms: _508  and  _510
REMARK  209  A    between atoms: _510  and  _511
REMARK  210  A    between atoms: _510  and  _513
REMARK  211  A    between atoms: _513  and  _514
REMARK  212  A    between atoms: _514  and  _515
REMARK  213  A    between atoms: _517  and  _519
REMARK  214  A    between atoms: _519  and  _520
REMARK  215  A    between atoms: _519  and  _522
REMARK  216  A    between atoms: _522  and  _523
REMARK  217  A    between atoms: _523  and  _524
REMARK  218  A    between atoms: _524  and  _525
REMARK  219  A    between atoms: _534  and  _536
REMARK  220  A    between atoms: _536  and  _537
REMARK  221  A    between atoms: _540  and  _542
REMARK  222  A    between atoms: _542  and  _543
REMARK  223  A    between atoms: _545  and  _547
REMARK  224  A    between atoms: _547  and  _548
REMARK  225  A    between atoms: _547  and  _550
REMARK  226  A    between atoms: _550  and  _551
REMARK  227  A    between atoms: _554  and  _556
REMARK  228  A    between atoms: _556  and  _557
REMARK  229  A    between atoms: _559  and  _561
REMARK  230  A    between atoms: _561  and  _562
REMARK  231  A    between atoms: _561  and  _564
REMARK  232  A    between atoms: _564  and  _565
REMARK  233  A    between atoms: _568  and  _570
REMARK  234  A    between atoms: _570  and  _571
REMARK  235  A    between atoms: _570  and  _573
REMARK  236  A    between atoms: _573  and  _574
REMARK  237  A    between atoms: _580  and  _582
REMARK  238  A    between atoms: _582  and  _583
REMARK  239  A    between atoms: _582  and  _585
REMARK  240  A    between atoms: _585  and  _586
REMARK  241  A    between atoms: _589  and  _591
REMARK  242  A    between atoms: _591  and  _592
REMARK  243  A    between atoms: _595  and  _597
REMARK  244  A    between atoms: _597  and  _598
REMARK  245  A    between atoms: _597  and  _600
REMARK  246  A    between atoms: _600  and  _601
REMARK  247  A    between atoms: _607  and  _609
REMARK  248  A    between atoms: _609  and  _610
REMARK  249  A    between atoms: _609  and  _612
REMARK  250  A    between atoms: _612  and  _613
REMARK  251  A    between atoms: _613  and  _614
REMARK  252  A    between atoms: _616  and  _618
REMARK  253  A    between atoms: _618  and  _619
REMARK  254  A    between atoms: _618  and  _621
REMARK  255  A    between atoms: _621  and  _622
REMARK  256  A    between atoms: _632  and  _634
REMARK  257  A    between atoms: _634  and  _635
REMARK  258  A    between atoms: _634  and  _637
REMARK  259  A    between atoms: _637  and  _638
REMARK  260  A    between atoms: _641  and  _643
REMARK  261  A    between atoms: _643  and  _644
REMARK  262  A    between atoms: _643  and  _646
REMARK  263  A    between atoms: _646  and  _647
REMARK                            x       y       z     vdW  Elec       q    Type
REMARK                         _______ _______ _______ _____ _____    ______ ____
ROOT
ATOM      1  CB  ARG A   1      -3.842  -2.977 -14.755  0.00  0.00    +0.030 C 
ENDROOT
BRANCH   1   2
ATOM      2  CA  ARG A   1      -3.109  -2.304 -15.925  0.00  0.00    +0.145 C 
BRANCH   2   3
ATOM      3  C   ARG A   1      -3.369  -0.797 -15.846  0.00  0.00    +0.238 C 
ATOM      4  N   ALA A   2      -2.839  -0.153 -14.827  0.00  0.00    -0.298 N 
ATOM      5  H   ALA A   2      -2.232  -0.679 -14.166  0.00  0.00    +0.150 HD
ATOM      6  O   ARG A   1      -4.089  -0.259 -16.672  0.00  0.00    -0.274 OA
BRANCH   4   7
ATOM      7  CA  ALA A   2      -3.066   1.255 -14.590  0.00  0.00    +0.137 C 
ATOM      8  CB  ALA A   2      -2.342   1.708 -13.242  0.00  0.00    +0.030 C 
BRANCH   7   9
ATOM      9  C   ALA A   2      -2.532   2.092 -15.818  0.00  0.00    +0.227 C 
ATOM     10  O   ALA A   2      -3.167   3.035 -16.284  0.00  0.00    -0.286 OA
ENDBRANCH   7   9
ENDBRANCH   4   7
ENDBRANCH   2   3
BRANCH   2  11
ATOM     11  N   ARG A   1      -1.688  -2.594 -15.844  0.00  0.00    -0.238 NA
ATOM     12  H   ARG A   1      -1.328  -3.178 -15.063  0.00  0.00    +0.142 HD
ENDBRANCH   2  11
ENDBRANCH   1   2
BRANCH   1  13
ATOM     13  CG  ARG A   1      -5.227  -3.291 -15.116  0.00  0.00    +0.045 C 
BRANCH  13  14
ATOM     14  CD  ARG A   1      -6.177  -2.170 -14.876  0.00  0.00    +0.174 C 
BRANCH  14  15
ATOM     15  NE  ARG A   1      -7.311  -2.288 -15.784  0.00  0.00    -0.265 N 
ATOM     16  CZ  ARG A   1      -8.138  -3.325 -15.809  0.00  0.00    +0.342 C 
ATOM     17  NH2 ARG A   1      -7.949  -4.348 -14.971  0.00  0.00    -0.292 N 
ATOM     18 HH21 ARG A   1      -7.154  -4.331 -14.300  0.00  0.00    +0.255 HD
ATOM     19 HH22 ARG A   1      -8.596  -5.162 -14.989  0.00  0.00    +0.255 HD
ATOM     20  NH1 ARG A   1      -9.175  -3.312 -16.659  0.00  0.00    -0.292 N 
ATOM     21 HH11 ARG A   1      -9.832  -4.118 -16.690  0.00  0.00    +0.255 HD
ATOM     22 HH12 ARG A   1      -9.322  -2.496 -17.287  0.00  0.00    +0.255 HD
ATOM     23  HE  ARG A   1      -7.482  -1.511 -16.454  0.00  0.00    +0.259 HD
ENDBRANCH  14  15
ENDBRANCH  13  14
ENDBRANCH   1  13
TORSDOF 8
REMARK  Name = ../refined-set-2016/3vw1/3vw1_pocket.pdb
REMARK  263 active torsions:
REMARK  status: ('A' for Active; 'I' for Inactive)
REMARK    1  A    between atoms: _1  and  _3
REMARK    2  A    between atoms: _3  and  _4
REMARK    3  A    between atoms: _3  and  _6
REMARK    4  A    between atoms: _6  and  _7
REMARK    5  A    between atoms: _12  and  _13
REMARK    6  A    between atoms: _15  and  _17
REMARK    7  A    between atoms: _17  and  _18
REMARK    8  A    between atoms: _17  and  _20
REMARK    9  A    between atoms: _20  and  _21
REMARK   10  A    between atoms: _24  and  _26
REMARK   11  A    between atoms: _26  and  _27
REMARK   12  A    between atoms: _26  and  _29
REMARK   13  A    between atoms: _29  and  _30
REMARK   14  A    between atoms: _30  and  _31
REMARK   15  A    between atoms: _31  and  _32
REMARK   16  A    between atoms: _32  and  _33
REMARK   17  A    between atoms: _37  and  _39
REMARK   18  A    between atoms: _39  and  _40
REMARK   19  A    between atoms: _39  and  _42
REMARK   20  A    between atoms: _42  and  _43
REMARK   21  A    between atoms: _43  and  _44
REMARK   22  A    between atoms: _49  and  _51
REMARK   23  A    between atoms: _51  and  _52
REMARK   24  A    between atoms: _51  and  _54
REMARK   25  A    between atoms: _54  and  _55
REMARK   26  A    between atoms: _58  and  _60
REMARK   27  A    between atoms: _60  and  _61
REMARK   28  A    between atoms: _60  and  _63
REMARK   29  A    between atoms: _63  and  _64
REMARK   30  A    between atoms: _67  and  _69
REMARK   31  A    between atoms: _69  and  _70
REMARK   32  A    between atoms: _69  and  _72
REMARK   33  A    between atoms: _74  and  _76
REMARK   34  A    between atoms: _76  and  _77
REMARK   35  A    between atoms: _76  and  _79
REMARK   36  A    between atoms: _79  and  _80
REMARK   37  A    between atoms: _80  and  _81
REMARK   38  A    between atoms: _86  and  _88
REMARK   39  A    between atoms: _88  and  _89
REMARK   40  A    between atoms: _88  and  _91
REMARK   41  A    between atoms: _91  and  _92
REMARK   42  A    between atoms: _94  and  _96
REMARK   43  A    between atoms: _96  and  _97
REMARK   44  A    between atoms: _96  and  _99
REMARK   45  A    between atoms: _99  and  _100
REMARK   46  A    between atoms: _100  and  _101
REMARK   47  A    between atoms: _103  and  _105
REMARK   48  A    between atoms: _105  and  _106
REMARK   49  A    between atoms: _105  and  _108
REMARK   50  A    between atoms: _108  and  _109
REMARK   51  A    between atoms: _112  and  _114
REMARK   52  A    between atoms: _114  and  _115
REMARK   53  A    between atoms: _114  and  _117
REMARK   54  A    between atoms: _117  and  _118
REMARK   55  A    between atoms: _118  and  _119
REMARK   56  A    between atoms: _121  and  _123
REMARK   57  A    between atoms: _123  and  _124
REMARK   58  A    between atoms: _123  and  _126
REMARK   59  A    between atoms: _126  and  _127
REMARK   60  A    between atoms: _127  and  _128
REMARK   61  A    between atoms: _131  and  _133
REMARK   62  A    between atoms: _133  and  _134
REMARK   63  A    between atoms: _133  and  _136
REMARK   64  A    between atoms: _136  and  _137
REMARK   65  A    between atoms: _140  and  _142
REMARK   66  A    between atoms: _142  and  _143
REMARK   67  A    between atoms: _146  and  _148
REMARK   68  A    between atoms: _148  and  _149
REMARK   69  A    between atoms: _148  and  _151
REMARK   70  A    between atoms: _151  and  _152
REMARK   71  A    between atoms: _152  and  _153
REMARK   72  A    between atoms: _155  and  _157
REMARK   73  A    between atoms: _157  and  _158
REMARK   74  A    between atoms: _157  and  _160
REMARK   75  A    between atoms: _160  and  _161
REMARK   76  A    between atoms: _164  and  _166
REMARK   77  A    between atoms: _166  and  _167
REMARK   78  A    between atoms: _166  and  _169
REMARK   79  A    between atoms: _169  and  _170
REMARK   80  A    between atoms: _170  and  _171
REMARK   81  A    between atoms: _171  and  _172
REMARK   82  A    between atoms: _181  and  _183
REMARK   83  A    between atoms: _183  and  _184
REMARK   84  A    between atoms: _183  and  _186
REMARK   85  A    between atoms: _186  and  _187
REMARK   86  A    between atoms: _193  and  _195
REMARK   87  A    between atoms: _195  and  _196
REMARK   88  A    between atoms: _195  and  _198
REMARK   89  A    between atoms: _198  and  _199
REMARK   90  A    between atoms: _202  and  _204
REMARK   91  A    between atoms: _204  and  _205
REMARK   92  A    between atoms: _204  and  _207
REMARK   93  A    between atoms: _207  and  _208
REMARK   94  A    between atoms: _218  and  _220
REMARK   95  A    between atoms: _220  and  _221
REMARK   96  A    between atoms: _220  and  _223
REMARK   97  A    between atoms: _223  and  _224
REMARK   98  A    between atoms: _229  and  _231
REMARK   99  A    between atoms: _231  and  _232
REMARK  100  A    between atoms: _231  and  _234
REMARK  101  A    between atoms: _234  and  _235
REMARK  102  A    between atoms: _237  and  _239
REMARK  103  A    between atoms: _239  and  _240
REMARK  104  A    between atoms: _239  and  _242
REMARK  105  A    between atoms: _242  and  _243
REMARK  106  A    between atoms: _248  and  _249
REMARK  107  A    between atoms: _251  and  _253
REMARK  108  A    between atoms: _253  and  _254
REMARK  109  A    between atoms: _253  and  _256
REMARK  110  A    between atoms: _256  and  _257
REMARK  111  A    between atoms: _260  and  _262
REMARK  112  A    between atoms: _262  and  _263
REMARK  113  A    between atoms: _262  and  _265
REMARK  114  A    between atoms: _265  and  _266
REMARK  115  A    between atoms: _268  and  _270
REMARK  116  A    between atoms: _270  and  _271
REMARK  117  A    between atoms: _270  and  _273
REMARK  118  A    between atoms: _273  and  _274
REMARK  119  A    between atoms: _284  and  _286
REMARK  120  A    between atoms: _286  and  _287
REMARK  121  A    between atoms: _289  and  _291
REMARK  122  A    between atoms: _291  and  _292
REMARK  123  A    between atoms: _291  and  _294
REMARK  124  A    between atoms: _294  and  _295
REMARK  125  A    between atoms: _295  and  _296
REMARK  126  A    between atoms: _296  and  _297
REMARK  127  A    between atoms: _306  and  _308
REMARK  128  A    between atoms: _308  and  _309
REMARK  129  A    between atoms: _308  and  _311
REMARK  130  A    between atoms: _311  and  _312
REMARK  131  A    between atoms: _317  and  _319
REMARK  132  A    between atoms: _319  and  _320
REMARK  133  A    between atoms: _323  and  _325
REMARK  134  A    between atoms: _325  and  _326
REMARK  135  A    between atoms: _325  and  _328
REMARK  136  A    between atoms: _328  and  _329
REMARK  137  A    between atoms: _332  and  _334
REMARK  138  A    between atoms: _334  and  _335
REMARK  139  A    between atoms: _334  and  _337
REMARK  140  A    between atoms: _337  and  _338
REMARK  141  A    between atoms: _338  and  _339
REMARK  142  A    between atoms: _339  and  _340
REMARK  143  A    between atoms: _349  and  _351
REMARK  144  A    between atoms: _351  and  _352
REMARK  145  A    between atoms: _351  and  _354
REMARK  146  A    between atoms: _354  and  _355
REMARK  147  A    between atoms: _355  and  _356
REMARK  148  A    between atoms: _361  and  _363
REMARK  149  A    between atoms: _363  and  _364
REMARK  150  A    between atoms: _363  and  _366
REMARK  151  A    between atoms: _366  and  _367
REMARK  152  A    between atoms: _370  and  _372
REMARK  153  A    between atoms: _372  and  _373
REMARK  154  A    between atoms: _376  and  _378
REMARK  155  A    between atoms: _378  and  _379
REMARK  156  A    between atoms: _378  and  _381
REMARK  157  A    between atoms: _384  and  _386
REMARK  158  A    between atoms: _386  and  _387
REMARK  159  A    between atoms: _386  and  _389
REMARK  160  A    between atoms: _389  and  _390
REMARK  161  A    between atoms: _393  and  _395
REMARK  162  A    between atoms: _395  and  _396
REMARK  163  A    between atoms: _399  and  _401
REMARK  164  A    between atoms: _401  and  _402
REMARK  165  A    between atoms: _401  and  _404
REMARK  166  A    between atoms: _404  and  _405
REMARK  167  A    between atoms: _408  and  _410
REMARK  168  A    between atoms: _410  and  _411
REMARK  169  A    between atoms: _410  and  _413
REMARK  170  A    between atoms: _413  and  _414
REMARK  171  A    between atoms: _414  and  _415
REMARK  172  A    between atoms: _417  and  _419
REMARK  173  A    between atoms: _419  and  _420
REMARK  174  A    between atoms: _419  and  _422
REMARK  175  A    between atoms: _422  and  _423
REMARK  176  A    between atoms: _429  and  _431
REMARK  177  A    between atoms: _431  and  _432
REMARK  178  A    between atoms: _431  and  _434
REMARK  179  A    between atoms: _434  and  _435
REMARK  180  A    between atoms: _438  and  _440
REMARK  181  A    between atoms: _440  and  _441
REMARK  182  A    between atoms: _440  and  _443
REMARK  183  A    between atoms: _443  and  _444
REMARK  184  A    between atoms: _444  and  _445
REMARK  185  A    between atoms: _445  and  _446
REMARK  186  A    between atoms: _455  and  _457
REMARK  187  A    between atoms: _457  and  _458
REMARK  188  A    between atoms: _457  and  _460
REMARK  189  A    between atoms: _460  and  _461
REMARK  190  A    between atoms: _464  and  _466
REMARK  191  A    between atoms: _466  and  _467
REMARK  192  A    between atoms: _466  and  _469
REMARK  193  A    between atoms: _471  and  _473
REMARK  194  A    between atoms: _473  and  _474
REMARK  195  A    between atoms: _473  and  _476
REMARK  196  A    between atoms: _476  and  _477
REMARK  197  A    between atoms: _479  and  _481
REMARK  198  A    between atoms: _481  and  _482
REMARK  199  A    between atoms: _481  and  _484
REMARK  200  A    between atoms: _487  and  _489
REMARK  201  A    between atoms: _489  and  _490
REMARK  202  A    between atoms: _489  and  _492
REMARK  203  A    between atoms: _492  and  _493
REMARK  204  A    between atoms: _496  and  _498
REMARK  205  A    between atoms: _498  and  _499
REMARK  206  A    between atoms: _498  and  _501
REMARK  207  A    between atoms: _501  and  _502
REMARK  208  A    between atoms: _508  and  _510
REMARK  209  A    between atoms: _510  and  _511
REMARK  210  A    between atoms: _510  and  _513
REMARK  211  A    between atoms: _513  and  _514
REMARK  212  A    between atoms: _514  and  _515
REMARK  213  A    between atoms: _517  and  _519
REMARK  214  A    between atoms: _519  and  _520
REMARK  215  A    between atoms: _519  and  _522
REMARK  216  A    between atoms: _522  and  _523
REMARK  217  A    between atoms: _523  and  _524
REMARK  218  A    between atoms: _524  and  _525
REMARK  219  A    between atoms: _534  and  _536
REMARK  220  A    between atoms: _536  and  _537
REMARK  221  A    between atoms: _540  and  _542
REMARK  222  A    between atoms: _542  and  _543
REMARK  223  A    between atoms: _545  and  _547
REMARK  224  A    between atoms: _547  and  _548
REMARK  225  A    between atoms: _547  and  _550
REMARK  226  A    between atoms: _550  and  _551
REMARK  227  A    between atoms: _554  and  _556
REMARK  228  A    between atoms: _556  and  _557
REMARK  229  A    between atoms: _559  and  _561
REMARK  230  A    between atoms: _561  and  _562
REMARK  231  A    between atoms: _561  and  _564
REMARK  232  A    between atoms: _564  and  _565
REMARK  233  A    between atoms: _568  and  _570
REMARK  234  A    between atoms: _570  and  _571
REMARK  235  A    between atoms: _570  and  _573
REMARK  236  A    between atoms: _573  and  _574
REMARK  237  A    between atoms: _580  and  _582
REMARK  238  A    between atoms: _582  and  _583
REMARK  239  A    between atoms: _582  and  _585
REMARK  240  A    between atoms: _585  and  _586
REMARK  241  A    between atoms: _589  and  _591
REMARK  242  A    between atoms: _591  and  _592
REMARK  243  A    between atoms: _595  and  _597
REMARK  244  A    between atoms: _597  and  _598
REMARK  245  A    between atoms: _597  and  _600
REMARK  246  A    between atoms: _600  and  _601
REMARK  247  A    between atoms: _607  and  _609
REMARK  248  A    between atoms: _609  and  _610
REMARK  249  A    between atoms: _609  and  _612
REMARK  250  A    between atoms: _612  and  _613
REMARK  251  A    between atoms: _613  and  _614
REMARK  252  A    between atoms: _616  and  _618
REMARK  253  A    between atoms: _618  and  _619
REMARK  254  A    between atoms: _618  and  _621
REMARK  255  A    between atoms: _621  and  _622
REMARK  256  A    between atoms: _632  and  _634
REMARK  257  A    between atoms: _634  and  _635
REMARK  258  A    between atoms: _634  and  _637
REMARK  259  A    between atoms: _637  and  _638
REMARK  260  A    between atoms: _641  and  _643
REMARK  261  A    between atoms: _643  and  _644
REMARK  262  A    between atoms: _643  and  _646
REMARK  263  A    between atoms: _646  and  _647
REMARK                            x       y       z     vdW  Elec       q    Type
REMARK                         _______ _______ _______ _____ _____    ______ ____
ROOT
ATOM      1  CA  LEU A   4      -3.557   5.670 -22.039  0.00  0.00    +0.149 C 
ENDROOT
BRANCH   1   2
ATOM      2  C   LEU A   4      -4.993   5.858 -22.585  0.00  0.00    +0.241 C 
ATOM      3  N   PHE A   5      -5.895   4.964 -22.207  0.00  0.00    -0.297 N 
ATOM      4  H   PHE A   5      -5.625   4.181 -21.578  0.00  0.00    +0.150 HD
ATOM      5  O   LEU A   4      -5.248   6.784 -23.335  0.00  0.00    -0.273 OA
BRANCH   3   6
ATOM      6  CA  PHE A   5      -7.264   5.086 -22.679  0.00  0.00    +0.153 C 
BRANCH   6   7
ATOM      7  C   PHE A   5      -7.813   6.455 -22.313  0.00  0.00    +0.241 C 
ATOM      8  N   LEU A   6      -7.727   6.814 -21.035  0.00  0.00    -0.298 N 
ATOM      9  H   LEU A   6      -7.299   6.130 -20.380  0.00  0.00    +0.150 HD
ATOM     10  O   PHE A   5      -8.385   7.116 -23.152  0.00  0.00    -0.273 OA
BRANCH   8  11
ATOM     11  CA  LEU A   6      -8.192   8.117 -20.453  0.00  0.00    +0.137 C 
BRANCH  11  12
ATOM     12  C   LEU A   6      -7.512   9.351 -21.029  0.00  0.00    +0.227 C 
ATOM     13  O   LEU A   6      -8.171  10.410 -21.246  0.00  0.00    -0.286 OA
ENDBRANCH  11  12
BRANCH  11  14
ATOM     14  CB  LEU A   6      -7.923   8.128 -18.934  0.00  0.00    +0.028 C 
BRANCH  14  15
ATOM     15  CG  LEU A   6      -9.019   7.788 -17.926  0.00  0.00    +0.002 C 
ATOM     16  CD2 LEU A   6      -8.510   6.872 -16.850  0.00  0.00    +0.000 C 
ATOM     17  CD1 LEU A   6     -10.339   7.307 -18.535  0.00  0.00    +0.000 C 
ENDBRANCH  14  15
ENDBRANCH  11  14
ENDBRANCH   8  11
ENDBRANCH   6   7
BRANCH   6  18
ATOM     18  CB  PHE A   5      -8.138   3.935 -21.991  0.00  0.00    +0.055 C 
BRANCH  18  19
ATOM     19  CG  PHE A   5      -9.609   4.077 -22.226  0.00  0.00    -0.020 A 
ATOM     20  CD2 PHE A   5     -10.389   4.917 -21.440  0.00  0.00    -0.004 A 
ATOM     21  CE2 PHE A   5     -11.788   5.070 -21.667  0.00  0.00    -0.000 A 
ATOM     22  CZ  PHE A   5     -12.388   4.329 -22.683  0.00  0.00    -0.000 A 
ATOM     23  CE1 PHE A   5     -11.608   3.461 -23.439  0.00  0.00    -0.000 A 
ATOM     24  CD1 PHE A   5     -10.209   3.367 -23.215  0.00  0.00    -0.004 A 
ENDBRANCH  18  19
ENDBRANCH   6  18
ENDBRANCH   3   6
ENDBRANCH   1   2
BRANCH   1  27
ATOM     25  C   GLY A   3      -4.035   6.267 -19.699  0.00  0.00    +0.243 C 
ATOM     26  O   GLY A   3      -4.472   7.394 -20.085  0.00  0.00    -0.273 OA
ATOM     27  N   LEU A   4      -3.610   5.350 -20.582  0.00  0.00    -0.297 N 
ATOM     28  H   LEU A   4      -3.316   4.410 -20.249  0.00  0.00    +0.150 HD
BRANCH  25  29
ATOM     29  CA  GLY A   3      -4.084   5.885 -18.208  0.00  0.00    +0.176 C 
BRANCH  29  31
ATOM     30  C   ASP A   2      -5.776   4.129 -18.486  0.00  0.00    +0.241 C 
ATOM     31  N   GLY A   3      -4.573   4.482 -18.018  0.00  0.00    -0.295 N 
ATOM     32  H   GLY A   3      -3.980   3.785 -17.524  0.00  0.00    +0.150 HD
ATOM     33  O   ASP A   2      -6.562   4.946 -19.031  0.00  0.00    -0.273 OA
BRANCH  30  34
ATOM     34  CA  ASP A   2      -6.188   2.644 -18.327  0.00  0.00    +0.160 C 
BRANCH  34  36
ATOM     35  C   GLY A   1      -4.558   1.691 -19.871  0.00  0.00    +0.240 C 
ATOM     36  N   ASP A   2      -5.055   1.755 -18.642  0.00  0.00    -0.297 N 
ATOM     37  H   ASP A   2      -4.639   1.169 -17.890  0.00  0.00    +0.150 HD
ATOM     38  O   GLY A   1      -5.117   2.211 -20.821  0.00  0.00    -0.274 OA
BRANCH  35  39
ATOM     39  CA  GLY A   1      -3.269   0.911 -20.077  0.00  0.00    +0.169 C 
BRANCH  39  40
ATOM     40  N   GLY A   1      -2.362   1.066 -19.018  0.00  0.00    -0.236 NA
ATOM     41  H   GLY A   1      -2.098   0.243 -18.439  0.00  0.00    +0.142 HD
ENDBRANCH  39  40
ENDBRANCH  35  39
ENDBRANCH  34  36
BRANCH  34  42
ATOM     42  CB  ASP A   2      -6.562   2.420 -16.849  0.00  0.00    +0.143 C 
BRANCH  42  43
ATOM     43  CG  ASP A   2      -7.400   1.150 -16.660  0.00  0.00    +0.367 C 
ATOM     44  OD2 ASP A   2      -7.621   0.800 -15.496  0.00  0.00    -0.246 OA
ATOM     45  OD1 ASP A   2      -7.740   0.498 -17.678  0.00  0.00    -0.246 OA
ENDBRANCH  42  43
ENDBRANCH  34  42
ENDBRANCH  30  34
ENDBRANCH  29  31
ENDBRANCH  25  29
ENDBRANCH   1  27
BRANCH   1  46
ATOM     46  CB  LEU A   4      -2.850   4.553 -22.842  0.00  0.00    +0.029 C 
BRANCH  46  47
ATOM     47  CG  LEU A   4      -1.299   4.344 -22.441  0.00  0.00    +0.002 C 
ATOM     48  CD2 LEU A   4      -0.550   5.608 -22.777  0.00  0.00    +0.000 C 
ATOM     49  CD1 LEU A   4      -0.697   3.177 -23.227  0.00  0.00    +0.000 C 
ENDBRANCH  46  47
ENDBRANCH   1  46
TORSDOF 20
REMARK  Name = ../refined-set-2016/3vw1/3vw1_pocket.pdb
REMARK  263 active torsions:
REMARK  status: ('A' for Active; 'I' for Inactive)
REMARK    1  A    between atoms: _1  and  _3
REMARK    2  A    between atoms: _3  and  _4
REMARK    3  A    between atoms: _3  and  _6
REMARK    4  A    between atoms: _6  and  _7
REMARK    5  A    between atoms: _12  and  _13
REMARK    6  A    between atoms: _15  and  _17
REMARK    7  A    between atoms: _17  and  _18
REMARK    8  A    between atoms: _17  and  _20
REMARK    9  A    between atoms: _20  and  _21
REMARK   10  A    between atoms: _24  and  _26
REMARK   11  A    between atoms: _26  and  _27
REMARK   12  A    between atoms: _26  and  _29
REMARK   13  A    between atoms: _29  and  _30
REMARK   14  A    between atoms: _30  and  _31
REMARK   15  A    between atoms: _31  and  _32
REMARK   16  A    between atoms: _32  and  _33
REMARK   17  A    between atoms: _37  and  _39
REMARK   18  A    between atoms: _39  and  _40
REMARK   19  A    between atoms: _39  and  _42
REMARK   20  A    between atoms: _42  and  _43
REMARK   21  A    between atoms: _43  and  _44
REMARK   22  A    between atoms: _49  and  _51
REMARK   23  A    between atoms: _51  and  _52
REMARK   24  A    between atoms: _51  and  _54
REMARK   25  A    between atoms: _54  and  _55
REMARK   26  A    between atoms: _58  and  _60
REMARK   27  A    between atoms: _60  and  _61
REMARK   28  A    between atoms: _60  and  _63
REMARK   29  A    between atoms: _63  and  _64
REMARK   30  A    between atoms: _67  and  _69
REMARK   31  A    between atoms: _69  and  _70
REMARK   32  A    between atoms: _69  and  _72
REMARK   33  A    between atoms: _74  and  _76
REMARK   34  A    between atoms: _76  and  _77
REMARK   35  A    between atoms: _76  and  _79
REMARK   36  A    between atoms: _79  and  _80
REMARK   37  A    between atoms: _80  and  _81
REMARK   38  A    between atoms: _86  and  _88
REMARK   39  A    between atoms: _88  and  _89
REMARK   40  A    between atoms: _88  and  _91
REMARK   41  A    between atoms: _91  and  _92
REMARK   42  A    between atoms: _94  and  _96
REMARK   43  A    between atoms: _96  and  _97
REMARK   44  A    between atoms: _96  and  _99
REMARK   45  A    between atoms: _99  and  _100
REMARK   46  A    between atoms: _100  and  _101
REMARK   47  A    between atoms: _103  and  _105
REMARK   48  A    between atoms: _105  and  _106
REMARK   49  A    between atoms: _105  and  _108
REMARK   50  A    between atoms: _108  and  _109
REMARK   51  A    between atoms: _112  and  _114
REMARK   52  A    between atoms: _114  and  _115
REMARK   53  A    between atoms: _114  and  _117
REMARK   54  A    between atoms: _117  and  _118
REMARK   55  A    between atoms: _118  and  _119
REMARK   56  A    between atoms: _121  and  _123
REMARK   57  A    between atoms: _123  and  _124
REMARK   58  A    between atoms: _123  and  _126
REMARK   59  A    between atoms: _126  and  _127
REMARK   60  A    between atoms: _127  and  _128
REMARK   61  A    between atoms: _131  and  _133
REMARK   62  A    between atoms: _133  and  _134
REMARK   63  A    between atoms: _133  and  _136
REMARK   64  A    between atoms: _136  and  _137
REMARK   65  A    between atoms: _140  and  _142
REMARK   66  A    between atoms: _142  and  _143
REMARK   67  A    between atoms: _146  and  _148
REMARK   68  A    between atoms: _148  and  _149
REMARK   69  A    between atoms: _148  and  _151
REMARK   70  A    between atoms: _151  and  _152
REMARK   71  A    between atoms: _152  and  _153
REMARK   72  A    between atoms: _155  and  _157
REMARK   73  A    between atoms: _157  and  _158
REMARK   74  A    between atoms: _157  and  _160
REMARK   75  A    between atoms: _160  and  _161
REMARK   76  A    between atoms: _164  and  _166
REMARK   77  A    between atoms: _166  and  _167
REMARK   78  A    between atoms: _166  and  _169
REMARK   79  A    between atoms: _169  and  _170
REMARK   80  A    between atoms: _170  and  _171
REMARK   81  A    between atoms: _171  and  _172
REMARK   82  A    between atoms: _181  and  _183
REMARK   83  A    between atoms: _183  and  _184
REMARK   84  A    between atoms: _183  and  _186
REMARK   85  A    between atoms: _186  and  _187
REMARK   86  A    between atoms: _193  and  _195
REMARK   87  A    between atoms: _195  and  _196
REMARK   88  A    between atoms: _195  and  _198
REMARK   89  A    between atoms: _198  and  _199
REMARK   90  A    between atoms: _202  and  _204
REMARK   91  A    between atoms: _204  and  _205
REMARK   92  A    between atoms: _204  and  _207
REMARK   93  A    between atoms: _207  and  _208
REMARK   94  A    between atoms: _218  and  _220
REMARK   95  A    between atoms: _220  and  _221
REMARK   96  A    between atoms: _220  and  _223
REMARK   97  A    between atoms: _223  and  _224
REMARK   98  A    between atoms: _229  and  _231
REMARK   99  A    between atoms: _231  and  _232
REMARK  100  A    between atoms: _231  and  _234
REMARK  101  A    between atoms: _234  and  _235
REMARK  102  A    between atoms: _237  and  _239
REMARK  103  A    between atoms: _239  and  _240
REMARK  104  A    between atoms: _239  and  _242
REMARK  105  A    between atoms: _242  and  _243
REMARK  106  A    between atoms: _248  and  _249
REMARK  107  A    between atoms: _251  and  _253
REMARK  108  A    between atoms: _253  and  _254
REMARK  109  A    between atoms: _253  and  _256
REMARK  110  A    between atoms: _256  and  _257
REMARK  111  A    between atoms: _260  and  _262
REMARK  112  A    between atoms: _262  and  _263
REMARK  113  A    between atoms: _262  and  _265
REMARK  114  A    between atoms: _265  and  _266
REMARK  115  A    between atoms: _268  and  _270
REMARK  116  A    between atoms: _270  and  _271
REMARK  117  A    between atoms: _270  and  _273
REMARK  118  A    between atoms: _273  and  _274
REMARK  119  A    between atoms: _284  and  _286
REMARK  120  A    between atoms: _286  and  _287
REMARK  121  A    between atoms: _289  and  _291
REMARK  122  A    between atoms: _291  and  _292
REMARK  123  A    between atoms: _291  and  _294
REMARK  124  A    between atoms: _294  and  _295
REMARK  125  A    between atoms: _295  and  _296
REMARK  126  A    between atoms: _296  and  _297
REMARK  127  A    between atoms: _306  and  _308
REMARK  128  A    between atoms: _308  and  _309
REMARK  129  A    between atoms: _308  and  _311
REMARK  130  A    between atoms: _311  and  _312
REMARK  131  A    between atoms: _317  and  _319
REMARK  132  A    between atoms: _319  and  _320
REMARK  133  A    between atoms: _323  and  _325
REMARK  134  A    between atoms: _325  and  _326
REMARK  135  A    between atoms: _325  and  _328
REMARK  136  A    between atoms: _328  and  _329
REMARK  137  A    between atoms: _332  and  _334
REMARK  138  A    between atoms: _334  and  _335
REMARK  139  A    between atoms: _334  and  _337
REMARK  140  A    between atoms: _337  and  _338
REMARK  141  A    between atoms: _338  and  _339
REMARK  142  A    between atoms: _339  and  _340
REMARK  143  A    between atoms: _349  and  _351
REMARK  144  A    between atoms: _351  and  _352
REMARK  145  A    between atoms: _351  and  _354
REMARK  146  A    between atoms: _354  and  _355
REMARK  147  A    between atoms: _355  and  _356
REMARK  148  A    between atoms: _361  and  _363
REMARK  149  A    between atoms: _363  and  _364
REMARK  150  A    between atoms: _363  and  _366
REMARK  151  A    between atoms: _366  and  _367
REMARK  152  A    between atoms: _370  and  _372
REMARK  153  A    between atoms: _372  and  _373
REMARK  154  A    between atoms: _376  and  _378
REMARK  155  A    between atoms: _378  and  _379
REMARK  156  A    between atoms: _378  and  _381
REMARK  157  A    between atoms: _384  and  _386
REMARK  158  A    between atoms: _386  and  _387
REMARK  159  A    between atoms: _386  and  _389
REMARK  160  A    between atoms: _389  and  _390
REMARK  161  A    between atoms: _393  and  _395
REMARK  162  A    between atoms: _395  and  _396
REMARK  163  A    between atoms: _399  and  _401
REMARK  164  A    between atoms: _401  and  _402
REMARK  165  A    between atoms: _401  and  _404
REMARK  166  A    between atoms: _404  and  _405
REMARK  167  A    between atoms: _408  and  _410
REMARK  168  A    between atoms: _410  and  _411
REMARK  169  A    between atoms: _410  and  _413
REMARK  170  A    between atoms: _413  and  _414
REMARK  171  A    between atoms: _414  and  _415
REMARK  172  A    between atoms: _417  and  _419
REMARK  173  A    between atoms: _419  and  _420
REMARK  174  A    between atoms: _419  and  _422
REMARK  175  A    between atoms: _422  and  _423
REMARK  176  A    between atoms: _429  and  _431
REMARK  177  A    between atoms: _431  and  _432
REMARK  178  A    between atoms: _431  and  _434
REMARK  179  A    between atoms: _434  and  _435
REMARK  180  A    between atoms: _438  and  _440
REMARK  181  A    between atoms: _440  and  _441
REMARK  182  A    between atoms: _440  and  _443
REMARK  183  A    between atoms: _443  and  _444
REMARK  184  A    between atoms: _444  and  _445
REMARK  185  A    between atoms: _445  and  _446
REMARK  186  A    between atoms: _455  and  _457
REMARK  187  A    between atoms: _457  and  _458
REMARK  188  A    between atoms: _457  and  _460
REMARK  189  A    between atoms: _460  and  _461
REMARK  190  A    between atoms: _464  and  _466
REMARK  191  A    between atoms: _466  and  _467
REMARK  192  A    between atoms: _466  and  _469
REMARK  193  A    between atoms: _471  and  _473
REMARK  194  A    between atoms: _473  and  _474
REMARK  195  A    between atoms: _473  and  _476
REMARK  196  A    between atoms: _476  and  _477
REMARK  197  A    between atoms: _479  and  _481
REMARK  198  A    between atoms: _481  and  _482
REMARK  199  A    between atoms: _481  and  _484
REMARK  200  A    between atoms: _487  and  _489
REMARK  201  A    between atoms: _489  and  _490
REMARK  202  A    between atoms: _489  and  _492
REMARK  203  A    between atoms: _492  and  _493
REMARK  204  A    between atoms: _496  and  _498
REMARK  205  A    between atoms: _498  and  _499
REMARK  206  A    between atoms: _498  and  _501
REMARK  207  A    between atoms: _501  and  _502
REMARK  208  A    between atoms: _508  and  _510
REMARK  209  A    between atoms: _510  and  _511
REMARK  210  A    between atoms: _510  and  _513
REMARK  211  A    between atoms: _513  and  _514
REMARK  212  A    between atoms: _514  and  _515
REMARK  213  A    between atoms: _517  and  _519
REMARK  214  A    between atoms: _519  and  _520
REMARK  215  A    between atoms: _519  and  _522
REMARK  216  A    between atoms: _522  and  _523
REMARK  217  A    between atoms: _523  and  _524
REMARK  218  A    between atoms: _524  and  _525
REMARK  219  A    between atoms: _534  and  _536
REMARK  220  A    between atoms: _536  and  _537
REMARK  221  A    between atoms: _540  and  _542
REMARK  222  A    between atoms: _542  and  _543
REMARK  223  A    between atoms: _545  and  _547
REMARK  224  A    between atoms: _547  and  _548
REMARK  225  A    between atoms: _547  and  _550
REMARK  226  A    between atoms: _550  and  _551
REMARK  227  A    between atoms: _554  and  _556
REMARK  228  A    between atoms: _556  and  _557
REMARK  229  A    between atoms: _559  and  _561
REMARK  230  A    between atoms: _561  and  _562
REMARK  231  A    between atoms: _561  and  _564
REMARK  232  A    between atoms: _564  and  _565
REMARK  233  A    between atoms: _568  and  _570
REMARK  234  A    between atoms: _570  and  _571
REMARK  235  A    between atoms: _570  and  _573
REMARK  236  A    between atoms: _573  and  _574
REMARK  237  A    between atoms: _580  and  _582
REMARK  238  A    between atoms: _582  and  _583
REMARK  239  A    between atoms: _582  and  _585
REMARK  240  A    between atoms: _585  and  _586
REMARK  241  A    between atoms: _589  and  _591
REMARK  242  A    between atoms: _591  and  _592
REMARK  243  A    between atoms: _595  and  _597
REMARK  244  A    between atoms: _597  and  _598
REMARK  245  A    between atoms: _597  and  _600
REMARK  246  A    between atoms: _600  and  _601
REMARK  247  A    between atoms: _607  and  _609
REMARK  248  A    between atoms: _609  and  _610
REMARK  249  A    between atoms: _609  and  _612
REMARK  250  A    between atoms: _612  and  _613
REMARK  251  A    between atoms: _613  and  _614
REMARK  252  A    between atoms: _616  and  _618
REMARK  253  A    between atoms: _618  and  _619
REMARK  254  A    between atoms: _618  and  _621
REMARK  255  A    between atoms: _621  and  _622
REMARK  256  A    between atoms: _632  and  _634
REMARK  257  A    between atoms: _634  and  _635
REMARK  258  A    between atoms: _634  and  _637
REMARK  259  A    between atoms: _637  and  _638
REMARK  260  A    between atoms: _641  and  _643
REMARK  261  A    between atoms: _643  and  _644
REMARK  262  A    between atoms: _643  and  _646
REMARK  263  A    between atoms: _646  and  _647
REMARK                            x       y       z     vdW  Elec       q    Type
REMARK                         _______ _______ _______ _____ _____    ______ ____
ROOT
ATOM      1  CA  ALA A   1     -10.517  10.049 -24.233  0.00  0.00    +0.133 C 
ATOM      2  CB  ALA A   1     -11.168   9.192 -23.091  0.00  0.00    +0.027 C 
ENDROOT
BRANCH   1   3
ATOM      3  N   ALA A   1      -9.105   9.612 -24.420  0.00  0.00    -0.239 NA
ATOM      4  H   ALA A   1      -8.696   8.928 -23.751  0.00  0.00    +0.142 HD
ENDBRANCH   1   3
BRANCH   1   5
ATOM      5  C   ALA A   1     -10.597  11.505 -23.870  0.00  0.00    +0.224 C 
ATOM      6  O   ALA A   1     -11.417  12.250 -24.406  0.00  0.00    -0.287 OA
ENDBRANCH   1   5
TORSDOF 2
REMARK  Name = ../refined-set-2016/3vw1/3vw1_pocket.pdb
REMARK  263 active torsions:
REMARK  status: ('A' for Active; 'I' for Inactive)
REMARK    1  A    between atoms: _1  and  _3
REMARK    2  A    between atoms: _3  and  _4
REMARK    3  A    between atoms: _3  and  _6
REMARK    4  A    between atoms: _6  and  _7
REMARK    5  A    between atoms: _12  and  _13
REMARK    6  A    between atoms: _15  and  _17
REMARK    7  A    between atoms: _17  and  _18
REMARK    8  A    between atoms: _17  and  _20
REMARK    9  A    between atoms: _20  and  _21
REMARK   10  A    between atoms: _24  and  _26
REMARK   11  A    between atoms: _26  and  _27
REMARK   12  A    between atoms: _26  and  _29
REMARK   13  A    between atoms: _29  and  _30
REMARK   14  A    between atoms: _30  and  _31
REMARK   15  A    between atoms: _31  and  _32
REMARK   16  A    between atoms: _32  and  _33
REMARK   17  A    between atoms: _37  and  _39
REMARK   18  A    between atoms: _39  and  _40
REMARK   19  A    between atoms: _39  and  _42
REMARK   20  A    between atoms: _42  and  _43
REMARK   21  A    between atoms: _43  and  _44
REMARK   22  A    between atoms: _49  and  _51
REMARK   23  A    between atoms: _51  and  _52
REMARK   24  A    between atoms: _51  and  _54
REMARK   25  A    between atoms: _54  and  _55
REMARK   26  A    between atoms: _58  and  _60
REMARK   27  A    between atoms: _60  and  _61
REMARK   28  A    between atoms: _60  and  _63
REMARK   29  A    between atoms: _63  and  _64
REMARK   30  A    between atoms: _67  and  _69
REMARK   31  A    between atoms: _69  and  _70
REMARK   32  A    between atoms: _69  and  _72
REMARK   33  A    between atoms: _74  and  _76
REMARK   34  A    between atoms: _76  and  _77
REMARK   35  A    between atoms: _76  and  _79
REMARK   36  A    between atoms: _79  and  _80
REMARK   37  A    between atoms: _80  and  _81
REMARK   38  A    between atoms: _86  and  _88
REMARK   39  A    between atoms: _88  and  _89
REMARK   40  A    between atoms: _88  and  _91
REMARK   41  A    between atoms: _91  and  _92
REMARK   42  A    between atoms: _94  and  _96
REMARK   43  A    between atoms: _96  and  _97
REMARK   44  A    between atoms: _96  and  _99
REMARK   45  A    between atoms: _99  and  _100
REMARK   46  A    between atoms: _100  and  _101
REMARK   47  A    between atoms: _103  and  _105
REMARK   48  A    between atoms: _105  and  _106
REMARK   49  A    between atoms: _105  and  _108
REMARK   50  A    between atoms: _108  and  _109
REMARK   51  A    between atoms: _112  and  _114
REMARK   52  A    between atoms: _114  and  _115
REMARK   53  A    between atoms: _114  and  _117
REMARK   54  A    between atoms: _117  and  _118
REMARK   55  A    between atoms: _118  and  _119
REMARK   56  A    between atoms: _121  and  _123
REMARK   57  A    between atoms: _123  and  _124
REMARK   58  A    between atoms: _123  and  _126
REMARK   59  A    between atoms: _126  and  _127
REMARK   60  A    between atoms: _127  and  _128
REMARK   61  A    between atoms: _131  and  _133
REMARK   62  A    between atoms: _133  and  _134
REMARK   63  A    between atoms: _133  and  _136
REMARK   64  A    between atoms: _136  and  _137
REMARK   65  A    between atoms: _140  and  _142
REMARK   66  A    between atoms: _142  and  _143
REMARK   67  A    between atoms: _146  and  _148
REMARK   68  A    between atoms: _148  and  _149
REMARK   69  A    between atoms: _148  and  _151
REMARK   70  A    between atoms: _151  and  _152
REMARK   71  A    between atoms: _152  and  _153
REMARK   72  A    between atoms: _155  and  _157
REMARK   73  A    between atoms: _157  and  _158
REMARK   74  A    between atoms: _157  and  _160
REMARK   75  A    between atoms: _160  and  _161
REMARK   76  A    between atoms: _164  and  _166
REMARK   77  A    between atoms: _166  and  _167
REMARK   78  A    between atoms: _166  and  _169
REMARK   79  A    between atoms: _169  and  _170
REMARK   80  A    between atoms: _170  and  _171
REMARK   81  A    between atoms: _171  and  _172
REMARK   82  A    between atoms: _181  and  _183
REMARK   83  A    between atoms: _183  and  _184
REMARK   84  A    between atoms: _183  and  _186
REMARK   85  A    between atoms: _186  and  _187
REMARK   86  A    between atoms: _193  and  _195
REMARK   87  A    between atoms: _195  and  _196
REMARK   88  A    between atoms: _195  and  _198
REMARK   89  A    between atoms: _198  and  _199
REMARK   90  A    between atoms: _202  and  _204
REMARK   91  A    between atoms: _204  and  _205
REMARK   92  A    between atoms: _204  and  _207
REMARK   93  A    between atoms: _207  and  _208
REMARK   94  A    between atoms: _218  and  _220
REMARK   95  A    between atoms: _220  and  _221
REMARK   96  A    between atoms: _220  and  _223
REMARK   97  A    between atoms: _223  and  _224
REMARK   98  A    between atoms: _229  and  _231
REMARK   99  A    between atoms: _231  and  _232
REMARK  100  A    between atoms: _231  and  _234
REMARK  101  A    between atoms: _234  and  _235
REMARK  102  A    between atoms: _237  and  _239
REMARK  103  A    between atoms: _239  and  _240
REMARK  104  A    between atoms: _239  and  _242
REMARK  105  A    between atoms: _242  and  _243
REMARK  106  A    between atoms: _248  and  _249
REMARK  107  A    between atoms: _251  and  _253
REMARK  108  A    between atoms: _253  and  _254
REMARK  109  A    between atoms: _253  and  _256
REMARK  110  A    between atoms: _256  and  _257
REMARK  111  A    between atoms: _260  and  _262
REMARK  112  A    between atoms: _262  and  _263
REMARK  113  A    between atoms: _262  and  _265
REMARK  114  A    between atoms: _265  and  _266
REMARK  115  A    between atoms: _268  and  _270
REMARK  116  A    between atoms: _270  and  _271
REMARK  117  A    between atoms: _270  and  _273
REMARK  118  A    between atoms: _273  and  _274
REMARK  119  A    between atoms: _284  and  _286
REMARK  120  A    between atoms: _286  and  _287
REMARK  121  A    between atoms: _289  and  _291
REMARK  122  A    between atoms: _291  and  _292
REMARK  123  A    between atoms: _291  and  _294
REMARK  124  A    between atoms: _294  and  _295
REMARK  125  A    between atoms: _295  and  _296
REMARK  126  A    between atoms: _296  and  _297
REMARK  127  A    between atoms: _306  and  _308
REMARK  128  A    between atoms: _308  and  _309
REMARK  129  A    between atoms: _308  and  _311
REMARK  130  A    between atoms: _311  and  _312
REMARK  131  A    between atoms: _317  and  _319
REMARK  132  A    between atoms: _319  and  _320
REMARK  133  A    between atoms: _323  and  _325
REMARK  134  A    between atoms: _325  and  _326
REMARK  135  A    between atoms: _325  and  _328
REMARK  136  A    between atoms: _328  and  _329
REMARK  137  A    between atoms: _332  and  _334
REMARK  138  A    between atoms: _334  and  _335
REMARK  139  A    between atoms: _334  and  _337
REMARK  140  A    between atoms: _337  and  _338
REMARK  141  A    between atoms: _338  and  _339
REMARK  142  A    between atoms: _339  and  _340
REMARK  143  A    between atoms: _349  and  _351
REMARK  144  A    between atoms: _351  and  _352
REMARK  145  A    between atoms: _351  and  _354
REMARK  146  A    between atoms: _354  and  _355
REMARK  147  A    between atoms: _355  and  _356
REMARK  148  A    between atoms: _361  and  _363
REMARK  149  A    between atoms: _363  and  _364
REMARK  150  A    between atoms: _363  and  _366
REMARK  151  A    between atoms: _366  and  _367
REMARK  152  A    between atoms: _370  and  _372
REMARK  153  A    between atoms: _372  and  _373
REMARK  154  A    between atoms: _376  and  _378
REMARK  155  A    between atoms: _378  and  _379
REMARK  156  A    between atoms: _378  and  _381
REMARK  157  A    between atoms: _384  and  _386
REMARK  158  A    between atoms: _386  and  _387
REMARK  159  A    between atoms: _386  and  _389
REMARK  160  A    between atoms: _389  and  _390
REMARK  161  A    between atoms: _393  and  _395
REMARK  162  A    between atoms: _395  and  _396
REMARK  163  A    between atoms: _399  and  _401
REMARK  164  A    between atoms: _401  and  _402
REMARK  165  A    between atoms: _401  and  _404
REMARK  166  A    between atoms: _404  and  _405
REMARK  167  A    between atoms: _408  and  _410
REMARK  168  A    between atoms: _410  and  _411
REMARK  169  A    between atoms: _410  and  _413
REMARK  170  A    between atoms: _413  and  _414
REMARK  171  A    between atoms: _414  and  _415
REMARK  172  A    between atoms: _417  and  _419
REMARK  173  A    between atoms: _419  and  _420
REMARK  174  A    between atoms: _419  and  _422
REMARK  175  A    between atoms: _422  and  _423
REMARK  176  A    between atoms: _429  and  _431
REMARK  177  A    between atoms: _431  and  _432
REMARK  178  A    between atoms: _431  and  _434
REMARK  179  A    between atoms: _434  and  _435
REMARK  180  A    between atoms: _438  and  _440
REMARK  181  A    between atoms: _440  and  _441
REMARK  182  A    between atoms: _440  and  _443
REMARK  183  A    between atoms: _443  and  _444
REMARK  184  A    between atoms: _444  and  _445
REMARK  185  A    between atoms: _445  and  _446
REMARK  186  A    between atoms: _455  and  _457
REMARK  187  A    between atoms: _457  and  _458
REMARK  188  A    between atoms: _457  and  _460
REMARK  189  A    between atoms: _460  and  _461
REMARK  190  A    between atoms: _464  and  _466
REMARK  191  A    between atoms: _466  and  _467
REMARK  192  A    between atoms: _466  and  _469
REMARK  193  A    between atoms: _471  and  _473
REMARK  194  A    between atoms: _473  and  _474
REMARK  195  A    between atoms: _473  and  _476
REMARK  196  A    between atoms: _476  and  _477
REMARK  197  A    between atoms: _479  and  _481
REMARK  198  A    between atoms: _481  and  _482
REMARK  199  A    between atoms: _481  and  _484
REMARK  200  A    between atoms: _487  and  _489
REMARK  201  A    between atoms: _489  and  _490
REMARK  202  A    between atoms: _489  and  _492
REMARK  203  A    between atoms: _492  and  _493
REMARK  204  A    between atoms: _496  and  _498
REMARK  205  A    between atoms: _498  and  _499
REMARK  206  A    between atoms: _498  and  _501
REMARK  207  A    between atoms: _501  and  _502
REMARK  208  A    between atoms: _508  and  _510
REMARK  209  A    between atoms: _510  and  _511
REMARK  210  A    between atoms: _510  and  _513
REMARK  211  A    between atoms: _513  and  _514
REMARK  212  A    between atoms: _514  and  _515
REMARK  213  A    between atoms: _517  and  _519
REMARK  214  A    between atoms: _519  and  _520
REMARK  215  A    between atoms: _519  and  _522
REMARK  216  A    between atoms: _522  and  _523
REMARK  217  A    between atoms: _523  and  _524
REMARK  218  A    between atoms: _524  and  _525
REMARK  219  A    between atoms: _534  and  _536
REMARK  220  A    between atoms: _536  and  _537
REMARK  221  A    between atoms: _540  and  _542
REMARK  222  A    between atoms: _542  and  _543
REMARK  223  A    between atoms: _545  and  _547
REMARK  224  A    between atoms: _547  and  _548
REMARK  225  A    between atoms: _547  and  _550
REMARK  226  A    between atoms: _550  and  _551
REMARK  227  A    between atoms: _554  and  _556
REMARK  228  A    between atoms: _556  and  _557
REMARK  229  A    between atoms: _559  and  _561
REMARK  230  A    between atoms: _561  and  _562
REMARK  231  A    between atoms: _561  and  _564
REMARK  232  A    between atoms: _564  and  _565
REMARK  233  A    between atoms: _568  and  _570
REMARK  234  A    between atoms: _570  and  _571
REMARK  235  A    between atoms: _570  and  _573
REMARK  236  A    between atoms: _573  and  _574
REMARK  237  A    between atoms: _580  and  _582
REMARK  238  A    between atoms: _582  and  _583
REMARK  239  A    between atoms: _582  and  _585
REMARK  240  A    between atoms: _585  and  _586
REMARK  241  A    between atoms: _589  and  _591
REMARK  242  A    between atoms: _591  and  _592
REMARK  243  A    between atoms: _595  and  _597
REMARK  244  A    between atoms: _597  and  _598
REMARK  245  A    between atoms: _597  and  _600
REMARK  246  A    between atoms: _600  and  _601
REMARK  247  A    between atoms: _607  and  _609
REMARK  248  A    between atoms: _609  and  _610
REMARK  249  A    between atoms: _609  and  _612
REMARK  250  A    between atoms: _612  and  _613
REMARK  251  A    between atoms: _613  and  _614
REMARK  252  A    between atoms: _616  and  _618
REMARK  253  A    between atoms: _618  and  _619
REMARK  254  A    between atoms: _618  and  _621
REMARK  255  A    between atoms: _621  and  _622
REMARK  256  A    between atoms: _632  and  _634
REMARK  257  A    between atoms: _634  and  _635
REMARK  258  A    between atoms: _634  and  _637
REMARK  259  A    between atoms: _637  and  _638
REMARK  260  A    between atoms: _641  and  _643
REMARK  261  A    between atoms: _643  and  _644
REMARK  262  A    between atoms: _643  and  _646
REMARK  263  A    between atoms: _646  and  _647
REMARK                            x       y       z     vdW  Elec       q    Type
REMARK                         _______ _______ _______ _____ _____    ______ ____
ROOT
ATOM      1  CB  PHE A   1     -13.331   5.151 -31.146  0.00  0.00    +0.051 C 
ENDROOT
BRANCH   1   2
ATOM      2  CG  PHE A   1     -13.630   3.695 -31.012  0.00  0.00    -0.020 A 
ATOM      3  CD2 PHE A   1     -13.786   3.114 -29.751  0.00  0.00    -0.004 A 
ATOM      4  CE2 PHE A   1     -14.026   1.750 -29.647  0.00  0.00    -0.000 A 
ATOM      5  CZ  PHE A   1     -14.082   0.960 -30.746  0.00  0.00    -0.000 A 
ATOM      6  CE1 PHE A   1     -13.861   1.440 -31.965  0.00  0.00    -0.000 A 
ATOM      7  CD1 PHE A   1     -13.618   2.843 -32.150  0.00  0.00    -0.004 A 
ENDBRANCH   1   2
BRANCH   1   8
ATOM      8  CA  PHE A   1     -11.886   5.503 -30.763  0.00  0.00    +0.137 C 
BRANCH   8   9
ATOM      9  N   PHE A   1     -11.591   6.905 -31.082  0.00  0.00    -0.239 NA
ATOM     10  H   PHE A   1     -12.325   7.506 -31.507  0.00  0.00    +0.142 HD
ENDBRANCH   8   9
BRANCH   8  11
ATOM     11  C   PHE A   1     -10.955   4.541 -31.455  0.00  0.00    +0.224 C 
ATOM     12  O   PHE A   1     -10.464   3.625 -30.841  0.00  0.00    -0.287 OA
ENDBRANCH   8  11
ENDBRANCH   1   8
TORSDOF 4
REMARK  Name = ../refined-set-2016/3vw1/3vw1_pocket.pdb
REMARK  263 active torsions:
REMARK  status: ('A' for Active; 'I' for Inactive)
REMARK    1  A    between atoms: _1  and  _3
REMARK    2  A    between atoms: _3  and  _4
REMARK    3  A    between atoms: _3  and  _6
REMARK    4  A    between atoms: _6  and  _7
REMARK    5  A    between atoms: _12  and  _13
REMARK    6  A    between atoms: _15  and  _17
REMARK    7  A    between atoms: _17  and  _18
REMARK    8  A    between atoms: _17  and  _20
REMARK    9  A    between atoms: _20  and  _21
REMARK   10  A    between atoms: _24  and  _26
REMARK   11  A    between atoms: _26  and  _27
REMARK   12  A    between atoms: _26  and  _29
REMARK   13  A    between atoms: _29  and  _30
REMARK   14  A    between atoms: _30  and  _31
REMARK   15  A    between atoms: _31  and  _32
REMARK   16  A    between atoms: _32  and  _33
REMARK   17  A    between atoms: _37  and  _39
REMARK   18  A    between atoms: _39  and  _40
REMARK   19  A    between atoms: _39  and  _42
REMARK   20  A    between atoms: _42  and  _43
REMARK   21  A    between atoms: _43  and  _44
REMARK   22  A    between atoms: _49  and  _51
REMARK   23  A    between atoms: _51  and  _52
REMARK   24  A    between atoms: _51  and  _54
REMARK   25  A    between atoms: _54  and  _55
REMARK   26  A    between atoms: _58  and  _60
REMARK   27  A    between atoms: _60  and  _61
REMARK   28  A    between atoms: _60  and  _63
REMARK   29  A    between atoms: _63  and  _64
REMARK   30  A    between atoms: _67  and  _69
REMARK   31  A    between atoms: _69  and  _70
REMARK   32  A    between atoms: _69  and  _72
REMARK   33  A    between atoms: _74  and  _76
REMARK   34  A    between atoms: _76  and  _77
REMARK   35  A    between atoms: _76  and  _79
REMARK   36  A    between atoms: _79  and  _80
REMARK   37  A    between atoms: _80  and  _81
REMARK   38  A    between atoms: _86  and  _88
REMARK   39  A    between atoms: _88  and  _89
REMARK   40  A    between atoms: _88  and  _91
REMARK   41  A    between atoms: _91  and  _92
REMARK   42  A    between atoms: _94  and  _96
REMARK   43  A    between atoms: _96  and  _97
REMARK   44  A    between atoms: _96  and  _99
REMARK   45  A    between atoms: _99  and  _100
REMARK   46  A    between atoms: _100  and  _101
REMARK   47  A    between atoms: _103  and  _105
REMARK   48  A    between atoms: _105  and  _106
REMARK   49  A    between atoms: _105  and  _108
REMARK   50  A    between atoms: _108  and  _109
REMARK   51  A    between atoms: _112  and  _114
REMARK   52  A    between atoms: _114  and  _115
REMARK   53  A    between atoms: _114  and  _117
REMARK   54  A    between atoms: _117  and  _118
REMARK   55  A    between atoms: _118  and  _119
REMARK   56  A    between atoms: _121  and  _123
REMARK   57  A    between atoms: _123  and  _124
REMARK   58  A    between atoms: _123  and  _126
REMARK   59  A    between atoms: _126  and  _127
REMARK   60  A    between atoms: _127  and  _128
REMARK   61  A    between atoms: _131  and  _133
REMARK   62  A    between atoms: _133  and  _134
REMARK   63  A    between atoms: _133  and  _136
REMARK   64  A    between atoms: _136  and  _137
REMARK   65  A    between atoms: _140  and  _142
REMARK   66  A    between atoms: _142  and  _143
REMARK   67  A    between atoms: _146  and  _148
REMARK   68  A    between atoms: _148  and  _149
REMARK   69  A    between atoms: _148  and  _151
REMARK   70  A    between atoms: _151  and  _152
REMARK   71  A    between atoms: _152  and  _153
REMARK   72  A    between atoms: _155  and  _157
REMARK   73  A    between atoms: _157  and  _158
REMARK   74  A    between atoms: _157  and  _160
REMARK   75  A    between atoms: _160  and  _161
REMARK   76  A    between atoms: _164  and  _166
REMARK   77  A    between atoms: _166  and  _167
REMARK   78  A    between atoms: _166  and  _169
REMARK   79  A    between atoms: _169  and  _170
REMARK   80  A    between atoms: _170  and  _171
REMARK   81  A    between atoms: _171  and  _172
REMARK   82  A    between atoms: _181  and  _183
REMARK   83  A    between atoms: _183  and  _184
REMARK   84  A    between atoms: _183  and  _186
REMARK   85  A    between atoms: _186  and  _187
REMARK   86  A    between atoms: _193  and  _195
REMARK   87  A    between atoms: _195  and  _196
REMARK   88  A    between atoms: _195  and  _198
REMARK   89  A    between atoms: _198  and  _199
REMARK   90  A    between atoms: _202  and  _204
REMARK   91  A    between atoms: _204  and  _205
REMARK   92  A    between atoms: _204  and  _207
REMARK   93  A    between atoms: _207  and  _208
REMARK   94  A    between atoms: _218  and  _220
REMARK   95  A    between atoms: _220  and  _221
REMARK   96  A    between atoms: _220  and  _223
REMARK   97  A    between atoms: _223  and  _224
REMARK   98  A    between atoms: _229  and  _231
REMARK   99  A    between atoms: _231  and  _232
REMARK  100  A    between atoms: _231  and  _234
REMARK  101  A    between atoms: _234  and  _235
REMARK  102  A    between atoms: _237  and  _239
REMARK  103  A    between atoms: _239  and  _240
REMARK  104  A    between atoms: _239  and  _242
REMARK  105  A    between atoms: _242  and  _243
REMARK  106  A    between atoms: _248  and  _249
REMARK  107  A    between atoms: _251  and  _253
REMARK  108  A    between atoms: _253  and  _254
REMARK  109  A    between atoms: _253  and  _256
REMARK  110  A    between atoms: _256  and  _257
REMARK  111  A    between atoms: _260  and  _262
REMARK  112  A    between atoms: _262  and  _263
REMARK  113  A    between atoms: _262  and  _265
REMARK  114  A    between atoms: _265  and  _266
REMARK  115  A    between atoms: _268  and  _270
REMARK  116  A    between atoms: _270  and  _271
REMARK  117  A    between atoms: _270  and  _273
REMARK  118  A    between atoms: _273  and  _274
REMARK  119  A    between atoms: _284  and  _286
REMARK  120  A    between atoms: _286  and  _287
REMARK  121  A    between atoms: _289  and  _291
REMARK  122  A    between atoms: _291  and  _292
REMARK  123  A    between atoms: _291  and  _294
REMARK  124  A    between atoms: _294  and  _295
REMARK  125  A    between atoms: _295  and  _296
REMARK  126  A    between atoms: _296  and  _297
REMARK  127  A    between atoms: _306  and  _308
REMARK  128  A    between atoms: _308  and  _309
REMARK  129  A    between atoms: _308  and  _311
REMARK  130  A    between atoms: _311  and  _312
REMARK  131  A    between atoms: _317  and  _319
REMARK  132  A    between atoms: _319  and  _320
REMARK  133  A    between atoms: _323  and  _325
REMARK  134  A    between atoms: _325  and  _326
REMARK  135  A    between atoms: _325  and  _328
REMARK  136  A    between atoms: _328  and  _329
REMARK  137  A    between atoms: _332  and  _334
REMARK  138  A    between atoms: _334  and  _335
REMARK  139  A    between atoms: _334  and  _337
REMARK  140  A    between atoms: _337  and  _338
REMARK  141  A    between atoms: _338  and  _339
REMARK  142  A    between atoms: _339  and  _340
REMARK  143  A    between atoms: _349  and  _351
REMARK  144  A    between atoms: _351  and  _352
REMARK  145  A    between atoms: _351  and  _354
REMARK  146  A    between atoms: _354  and  _355
REMARK  147  A    between atoms: _355  and  _356
REMARK  148  A    between atoms: _361  and  _363
REMARK  149  A    between atoms: _363  and  _364
REMARK  150  A    between atoms: _363  and  _366
REMARK  151  A    between atoms: _366  and  _367
REMARK  152  A    between atoms: _370  and  _372
REMARK  153  A    between atoms: _372  and  _373
REMARK  154  A    between atoms: _376  and  _378
REMARK  155  A    between atoms: _378  and  _379
REMARK  156  A    between atoms: _378  and  _381
REMARK  157  A    between atoms: _384  and  _386
REMARK  158  A    between atoms: _386  and  _387
REMARK  159  A    between atoms: _386  and  _389
REMARK  160  A    between atoms: _389  and  _390
REMARK  161  A    between atoms: _393  and  _395
REMARK  162  A    between atoms: _395  and  _396
REMARK  163  A    between atoms: _399  and  _401
REMARK  164  A    between atoms: _401  and  _402
REMARK  165  A    between atoms: _401  and  _404
REMARK  166  A    between atoms: _404  and  _405
REMARK  167  A    between atoms: _408  and  _410
REMARK  168  A    between atoms: _410  and  _411
REMARK  169  A    between atoms: _410  and  _413
REMARK  170  A    between atoms: _413  and  _414
REMARK  171  A    between atoms: _414  and  _415
REMARK  172  A    between atoms: _417  and  _419
REMARK  173  A    between atoms: _419  and  _420
REMARK  174  A    between atoms: _419  and  _422
REMARK  175  A    between atoms: _422  and  _423
REMARK  176  A    between atoms: _429  and  _431
REMARK  177  A    between atoms: _431  and  _432
REMARK  178  A    between atoms: _431  and  _434
REMARK  179  A    between atoms: _434  and  _435
REMARK  180  A    between atoms: _438  and  _440
REMARK  181  A    between atoms: _440  and  _441
REMARK  182  A    between atoms: _440  and  _443
REMARK  183  A    between atoms: _443  and  _444
REMARK  184  A    between atoms: _444  and  _445
REMARK  185  A    between atoms: _445  and  _446
REMARK  186  A    between atoms: _455  and  _457
REMARK  187  A    between atoms: _457  and  _458
REMARK  188  A    between atoms: _457  and  _460
REMARK  189  A    between atoms: _460  and  _461
REMARK  190  A    between atoms: _464  and  _466
REMARK  191  A    between atoms: _466  and  _467
REMARK  192  A    between atoms: _466  and  _469
REMARK  193  A    between atoms: _471  and  _473
REMARK  194  A    between atoms: _473  and  _474
REMARK  195  A    between atoms: _473  and  _476
REMARK  196  A    between atoms: _476  and  _477
REMARK  197  A    between atoms: _479  and  _481
REMARK  198  A    between atoms: _481  and  _482
REMARK  199  A    between atoms: _481  and  _484
REMARK  200  A    between atoms: _487  and  _489
REMARK  201  A    between atoms: _489  and  _490
REMARK  202  A    between atoms: _489  and  _492
REMARK  203  A    between atoms: _492  and  _493
REMARK  204  A    between atoms: _496  and  _498
REMARK  205  A    between atoms: _498  and  _499
REMARK  206  A    between atoms: _498  and  _501
REMARK  207  A    between atoms: _501  and  _502
REMARK  208  A    between atoms: _508  and  _510
REMARK  209  A    between atoms: _510  and  _511
REMARK  210  A    between atoms: _510  and  _513
REMARK  211  A    between atoms: _513  and  _514
REMARK  212  A    between atoms: _514  and  _515
REMARK  213  A    between atoms: _517  and  _519
REMARK  214  A    between atoms: _519  and  _520
REMARK  215  A    between atoms: _519  and  _522
REMARK  216  A    between atoms: _522  and  _523
REMARK  217  A    between atoms: _523  and  _524
REMARK  218  A    between atoms: _524  and  _525
REMARK  219  A    between atoms: _534  and  _536
REMARK  220  A    between atoms: _536  and  _537
REMARK  221  A    between atoms: _540  and  _542
REMARK  222  A    between atoms: _542  and  _543
REMARK  223  A    between atoms: _545  and  _547
REMARK  224  A    between atoms: _547  and  _548
REMARK  225  A    between atoms: _547  and  _550
REMARK  226  A    between atoms: _550  and  _551
REMARK  227  A    between atoms: _554  and  _556
REMARK  228  A    between atoms: _556  and  _557
REMARK  229  A    between atoms: _559  and  _561
REMARK  230  A    between atoms: _561  and  _562
REMARK  231  A    between atoms: _561  and  _564
REMARK  232  A    between atoms: _564  and  _565
REMARK  233  A    between atoms: _568  and  _570
REMARK  234  A    between atoms: _570  and  _571
REMARK  235  A    between atoms: _570  and  _573
REMARK  236  A    between atoms: _573  and  _574
REMARK  237  A    between atoms: _580  and  _582
REMARK  238  A    between atoms: _582  and  _583
REMARK  239  A    between atoms: _582  and  _585
REMARK  240  A    between atoms: _585  and  _586
REMARK  241  A    between atoms: _589  and  _591
REMARK  242  A    between atoms: _591  and  _592
REMARK  243  A    between atoms: _595  and  _597
REMARK  244  A    between atoms: _597  and  _598
REMARK  245  A    between atoms: _597  and  _600
REMARK  246  A    between atoms: _600  and  _601
REMARK  247  A    between atoms: _607  and  _609
REMARK  248  A    between atoms: _609  and  _610
REMARK  249  A    between atoms: _609  and  _612
REMARK  250  A    between atoms: _612  and  _613
REMARK  251  A    between atoms: _613  and  _614
REMARK  252  A    between atoms: _616  and  _618
REMARK  253  A    between atoms: _618  and  _619
REMARK  254  A    between atoms: _618  and  _621
REMARK  255  A    between atoms: _621  and  _622
REMARK  256  A    between atoms: _632  and  _634
REMARK  257  A    between atoms: _634  and  _635
REMARK  258  A    between atoms: _634  and  _637
REMARK  259  A    between atoms: _637  and  _638
REMARK  260  A    between atoms: _641  and  _643
REMARK  261  A    between atoms: _643  and  _644
REMARK  262  A    between atoms: _643  and  _646
REMARK  263  A    between atoms: _646  and  _647
REMARK                            x       y       z     vdW  Elec       q    Type
REMARK                         _______ _______ _______ _____ _____    ______ ____
ROOT
ATOM      1  CA  TRP A   2      -8.612   0.557 -30.269  0.00  0.00    +0.141 C 
ENDROOT
BRANCH   1   4
ATOM      2  C   MET A   1      -7.564   2.432 -29.145  0.00  0.00    +0.238 C 
ATOM      3  O   MET A   1      -6.891   1.723 -28.491  0.00  0.00    -0.274 OA
ATOM      4  N   TRP A   2      -8.423   1.992 -30.036  0.00  0.00    -0.298 N 
ATOM      5  H   TRP A   2      -8.980   2.675 -30.587  0.00  0.00    +0.150 HD
BRANCH   2   6
ATOM      6  CA  MET A   1      -7.515   3.916 -28.943  0.00  0.00    +0.146 C 
BRANCH   6   7
ATOM      7  N   MET A   1      -7.492   4.634 -30.193  0.00  0.00    -0.238 NA
ATOM      8  H   MET A   1      -8.249   5.317 -30.398  0.00  0.00    +0.142 HD
ENDBRANCH   6   7
BRANCH   6   9
ATOM      9  CB  MET A   1      -8.690   4.344 -28.078  0.00  0.00    +0.038 C 
BRANCH   9  10
ATOM     10  CG  MET A   1      -8.795   3.686 -26.739  0.00  0.00    +0.060 C 
BRANCH  10  11
ATOM     11  SD  MET A   1      -9.548   2.093 -26.640  0.00  0.00    -0.139 S 
ATOM     12  CE  MET A   1     -11.101   2.382 -27.296  0.00  0.00    +0.069 C 
ENDBRANCH  10  11
ENDBRANCH   9  10
ENDBRANCH   6   9
ENDBRANCH   2   6
ENDBRANCH   1   4
BRANCH   1  13
ATOM     13  C   TRP A   2      -7.312  -0.072 -30.830  0.00  0.00    +0.227 C 
ATOM     14  O   TRP A   2      -6.982  -1.172 -30.481  0.00  0.00    -0.286 OA
ENDBRANCH   1  13
BRANCH   1  15
ATOM     15  CB  TRP A   2      -9.730   0.357 -31.300  0.00  0.00    +0.056 C 
BRANCH  15  16
ATOM     16  CG  TRP A   2      -9.948  -1.049 -31.688  0.00  0.00    -0.002 A 
ATOM     17  CD2 TRP A   2     -10.717  -2.024 -30.977  0.00  0.00    +0.013 A 
ATOM     18  CE3 TRP A   2     -11.445  -2.000 -29.778  0.00  0.00    +0.001 A 
ATOM     19  CZ3 TRP A   2     -12.085  -3.165 -29.351  0.00  0.00    +0.000 A 
ATOM     20  CH2 TRP A   2     -12.005  -4.365 -30.128  0.00  0.00    +0.001 A 
ATOM     21  CZ2 TRP A   2     -11.291  -4.408 -31.315  0.00  0.00    +0.017 A 
ATOM     22  CE2 TRP A   2     -10.693  -3.235 -31.760  0.00  0.00    +0.056 A 
ATOM     23  NE1 TRP A   2      -9.908  -3.017 -32.884  0.00  0.00    -0.352 N 
ATOM     24  HE1 TRP A   2      -9.687  -3.722 -33.616  0.00  0.00    +0.166 HD
ATOM     25  CD1 TRP A   2      -9.468  -1.704 -32.869  0.00  0.00    +0.068 A 
ENDBRANCH  15  16
ENDBRANCH   1  15
TORSDOF 9
REMARK  Name = ../refined-set-2016/3vw1/3vw1_pocket.pdb
REMARK  263 active torsions:
REMARK  status: ('A' for Active; 'I' for Inactive)
REMARK    1  A    between atoms: _1  and  _3
REMARK    2  A    between atoms: _3  and  _4
REMARK    3  A    between atoms: _3  and  _6
REMARK    4  A    between atoms: _6  and  _7
REMARK    5  A    between atoms: _12  and  _13
REMARK    6  A    between atoms: _15  and  _17
REMARK    7  A    between atoms: _17  and  _18
REMARK    8  A    between atoms: _17  and  _20
REMARK    9  A    between atoms: _20  and  _21
REMARK   10  A    between atoms: _24  and  _26
REMARK   11  A    between atoms: _26  and  _27
REMARK   12  A    between atoms: _26  and  _29
REMARK   13  A    between atoms: _29  and  _30
REMARK   14  A    between atoms: _30  and  _31
REMARK   15  A    between atoms: _31  and  _32
REMARK   16  A    between atoms: _32  and  _33
REMARK   17  A    between atoms: _37  and  _39
REMARK   18  A    between atoms: _39  and  _40
REMARK   19  A    between atoms: _39  and  _42
REMARK   20  A    between atoms: _42  and  _43
REMARK   21  A    between atoms: _43  and  _44
REMARK   22  A    between atoms: _49  and  _51
REMARK   23  A    between atoms: _51  and  _52
REMARK   24  A    between atoms: _51  and  _54
REMARK   25  A    between atoms: _54  and  _55
REMARK   26  A    between atoms: _58  and  _60
REMARK   27  A    between atoms: _60  and  _61
REMARK   28  A    between atoms: _60  and  _63
REMARK   29  A    between atoms: _63  and  _64
REMARK   30  A    between atoms: _67  and  _69
REMARK   31  A    between atoms: _69  and  _70
REMARK   32  A    between atoms: _69  and  _72
REMARK   33  A    between atoms: _74  and  _76
REMARK   34  A    between atoms: _76  and  _77
REMARK   35  A    between atoms: _76  and  _79
REMARK   36  A    between atoms: _79  and  _80
REMARK   37  A    between atoms: _80  and  _81
REMARK   38  A    between atoms: _86  and  _88
REMARK   39  A    between atoms: _88  and  _89
REMARK   40  A    between atoms: _88  and  _91
REMARK   41  A    between atoms: _91  and  _92
REMARK   42  A    between atoms: _94  and  _96
REMARK   43  A    between atoms: _96  and  _97
REMARK   44  A    between atoms: _96  and  _99
REMARK   45  A    between atoms: _99  and  _100
REMARK   46  A    between atoms: _100  and  _101
REMARK   47  A    between atoms: _103  and  _105
REMARK   48  A    between atoms: _105  and  _106
REMARK   49  A    between atoms: _105  and  _108
REMARK   50  A    between atoms: _108  and  _109
REMARK   51  A    between atoms: _112  and  _114
REMARK   52  A    between atoms: _114  and  _115
REMARK   53  A    between atoms: _114  and  _117
REMARK   54  A    between atoms: _117  and  _118
REMARK   55  A    between atoms: _118  and  _119
REMARK   56  A    between atoms: _121  and  _123
REMARK   57  A    between atoms: _123  and  _124
REMARK   58  A    between atoms: _123  and  _126
REMARK   59  A    between atoms: _126  and  _127
REMARK   60  A    between atoms: _127  and  _128
REMARK   61  A    between atoms: _131  and  _133
REMARK   62  A    between atoms: _133  and  _134
REMARK   63  A    between atoms: _133  and  _136
REMARK   64  A    between atoms: _136  and  _137
REMARK   65  A    between atoms: _140  and  _142
REMARK   66  A    between atoms: _142  and  _143
REMARK   67  A    between atoms: _146  and  _148
REMARK   68  A    between atoms: _148  and  _149
REMARK   69  A    between atoms: _148  and  _151
REMARK   70  A    between atoms: _151  and  _152
REMARK   71  A    between atoms: _152  and  _153
REMARK   72  A    between atoms: _155  and  _157
REMARK   73  A    between atoms: _157  and  _158
REMARK   74  A    between atoms: _157  and  _160
REMARK   75  A    between atoms: _160  and  _161
REMARK   76  A    between atoms: _164  and  _166
REMARK   77  A    between atoms: _166  and  _167
REMARK   78  A    between atoms: _166  and  _169
REMARK   79  A    between atoms: _169  and  _170
REMARK   80  A    between atoms: _170  and  _171
REMARK   81  A    between atoms: _171  and  _172
REMARK   82  A    between atoms: _181  and  _183
REMARK   83  A    between atoms: _183  and  _184
REMARK   84  A    between atoms: _183  and  _186
REMARK   85  A    between atoms: _186  and  _187
REMARK   86  A    between atoms: _193  and  _195
REMARK   87  A    between atoms: _195  and  _196
REMARK   88  A    between atoms: _195  and  _198
REMARK   89  A    between atoms: _198  and  _199
REMARK   90  A    between atoms: _202  and  _204
REMARK   91  A    between atoms: _204  and  _205
REMARK   92  A    between atoms: _204  and  _207
REMARK   93  A    between atoms: _207  and  _208
REMARK   94  A    between atoms: _218  and  _220
REMARK   95  A    between atoms: _220  and  _221
REMARK   96  A    between atoms: _220  and  _223
REMARK   97  A    between atoms: _223  and  _224
REMARK   98  A    between atoms: _229  and  _231
REMARK   99  A    between atoms: _231  and  _232
REMARK  100  A    between atoms: _231  and  _234
REMARK  101  A    between atoms: _234  and  _235
REMARK  102  A    between atoms: _237  and  _239
REMARK  103  A    between atoms: _239  and  _240
REMARK  104  A    between atoms: _239  and  _242
REMARK  105  A    between atoms: _242  and  _243
REMARK  106  A    between atoms: _248  and  _249
REMARK  107  A    between atoms: _251  and  _253
REMARK  108  A    between atoms: _253  and  _254
REMARK  109  A    between atoms: _253  and  _256
REMARK  110  A    between atoms: _256  and  _257
REMARK  111  A    between atoms: _260  and  _262
REMARK  112  A    between atoms: _262  and  _263
REMARK  113  A    between atoms: _262  and  _265
REMARK  114  A    between atoms: _265  and  _266
REMARK  115  A    between atoms: _268  and  _270
REMARK  116  A    between atoms: _270  and  _271
REMARK  117  A    between atoms: _270  and  _273
REMARK  118  A    between atoms: _273  and  _274
REMARK  119  A    between atoms: _284  and  _286
REMARK  120  A    between atoms: _286  and  _287
REMARK  121  A    between atoms: _289  and  _291
REMARK  122  A    between atoms: _291  and  _292
REMARK  123  A    between atoms: _291  and  _294
REMARK  124  A    between atoms: _294  and  _295
REMARK  125  A    between atoms: _295  and  _296
REMARK  126  A    between atoms: _296  and  _297
REMARK  127  A    between atoms: _306  and  _308
REMARK  128  A    between atoms: _308  and  _309
REMARK  129  A    between atoms: _308  and  _311
REMARK  130  A    between atoms: _311  and  _312
REMARK  131  A    between atoms: _317  and  _319
REMARK  132  A    between atoms: _319  and  _320
REMARK  133  A    between atoms: _323  and  _325
REMARK  134  A    between atoms: _325  and  _326
REMARK  135  A    between atoms: _325  and  _328
REMARK  136  A    between atoms: _328  and  _329
REMARK  137  A    between atoms: _332  and  _334
REMARK  138  A    between atoms: _334  and  _335
REMARK  139  A    between atoms: _334  and  _337
REMARK  140  A    between atoms: _337  and  _338
REMARK  141  A    between atoms: _338  and  _339
REMARK  142  A    between atoms: _339  and  _340
REMARK  143  A    between atoms: _349  and  _351
REMARK  144  A    between atoms: _351  and  _352
REMARK  145  A    between atoms: _351  and  _354
REMARK  146  A    between atoms: _354  and  _355
REMARK  147  A    between atoms: _355  and  _356
REMARK  148  A    between atoms: _361  and  _363
REMARK  149  A    between atoms: _363  and  _364
REMARK  150  A    between atoms: _363  and  _366
REMARK  151  A    between atoms: _366  and  _367
REMARK  152  A    between atoms: _370  and  _372
REMARK  153  A    between atoms: _372  and  _373
REMARK  154  A    between atoms: _376  and  _378
REMARK  155  A    between atoms: _378  and  _379
REMARK  156  A    between atoms: _378  and  _381
REMARK  157  A    between atoms: _384  and  _386
REMARK  158  A    between atoms: _386  and  _387
REMARK  159  A    between atoms: _386  and  _389
REMARK  160  A    between atoms: _389  and  _390
REMARK  161  A    between atoms: _393  and  _395
REMARK  162  A    between atoms: _395  and  _396
REMARK  163  A    between atoms: _399  and  _401
REMARK  164  A    between atoms: _401  and  _402
REMARK  165  A    between atoms: _401  and  _404
REMARK  166  A    between atoms: _404  and  _405
REMARK  167  A    between atoms: _408  and  _410
REMARK  168  A    between atoms: _410  and  _411
REMARK  169  A    between atoms: _410  and  _413
REMARK  170  A    between atoms: _413  and  _414
REMARK  171  A    between atoms: _414  and  _415
REMARK  172  A    between atoms: _417  and  _419
REMARK  173  A    between atoms: _419  and  _420
REMARK  174  A    between atoms: _419  and  _422
REMARK  175  A    between atoms: _422  and  _423
REMARK  176  A    between atoms: _429  and  _431
REMARK  177  A    between atoms: _431  and  _432
REMARK  178  A    between atoms: _431  and  _434
REMARK  179  A    between atoms: _434  and  _435
REMARK  180  A    between atoms: _438  and  _440
REMARK  181  A    between atoms: _440  and  _441
REMARK  182  A    between atoms: _440  and  _443
REMARK  183  A    between atoms: _443  and  _444
REMARK  184  A    between atoms: _444  and  _445
REMARK  185  A    between atoms: _445  and  _446
REMARK  186  A    between atoms: _455  and  _457
REMARK  187  A    between atoms: _457  and  _458
REMARK  188  A    between atoms: _457  and  _460
REMARK  189  A    between atoms: _460  and  _461
REMARK  190  A    between atoms: _464  and  _466
REMARK  191  A    between atoms: _466  and  _467
REMARK  192  A    between atoms: _466  and  _469
REMARK  193  A    between atoms: _471  and  _473
REMARK  194  A    between atoms: _473  and  _474
REMARK  195  A    between atoms: _473  and  _476
REMARK  196  A    between atoms: _476  and  _477
REMARK  197  A    between atoms: _479  and  _481
REMARK  198  A    between atoms: _481  and  _482
REMARK  199  A    between atoms: _481  and  _484
REMARK  200  A    between atoms: _487  and  _489
REMARK  201  A    between atoms: _489  and  _490
REMARK  202  A    between atoms: _489  and  _492
REMARK  203  A    between atoms: _492  and  _493
REMARK  204  A    between atoms: _496  and  _498
REMARK  205  A    between atoms: _498  and  _499
REMARK  206  A    between atoms: _498  and  _501
REMARK  207  A    between atoms: _501  and  _502
REMARK  208  A    between atoms: _508  and  _510
REMARK  209  A    between atoms: _510  and  _511
REMARK  210  A    between atoms: _510  and  _513
REMARK  211  A    between atoms: _513  and  _514
REMARK  212  A    between atoms: _514  and  _515
REMARK  213  A    between atoms: _517  and  _519
REMARK  214  A    between atoms: _519  and  _520
REMARK  215  A    between atoms: _519  and  _522
REMARK  216  A    between atoms: _522  and  _523
REMARK  217  A    between atoms: _523  and  _524
REMARK  218  A    between atoms: _524  and  _525
REMARK  219  A    between atoms: _534  and  _536
REMARK  220  A    between atoms: _536  and  _537
REMARK  221  A    between atoms: _540  and  _542
REMARK  222  A    between atoms: _542  and  _543
REMARK  223  A    between atoms: _545  and  _547
REMARK  224  A    between atoms: _547  and  _548
REMARK  225  A    between atoms: _547  and  _550
REMARK  226  A    between atoms: _550  and  _551
REMARK  227  A    between atoms: _554  and  _556
REMARK  228  A    between atoms: _556  and  _557
REMARK  229  A    between atoms: _559  and  _561
REMARK  230  A    between atoms: _561  and  _562
REMARK  231  A    between atoms: _561  and  _564
REMARK  232  A    between atoms: _564  and  _565
REMARK  233  A    between atoms: _568  and  _570
REMARK  234  A    between atoms: _570  and  _571
REMARK  235  A    between atoms: _570  and  _573
REMARK  236  A    between atoms: _573  and  _574
REMARK  237  A    between atoms: _580  and  _582
REMARK  238  A    between atoms: _582  and  _583
REMARK  239  A    between atoms: _582  and  _585
REMARK  240  A    between atoms: _585  and  _586
REMARK  241  A    between atoms: _589  and  _591
REMARK  242  A    between atoms: _591  and  _592
REMARK  243  A    between atoms: _595  and  _597
REMARK  244  A    between atoms: _597  and  _598
REMARK  245  A    between atoms: _597  and  _600
REMARK  246  A    between atoms: _600  and  _601
REMARK  247  A    between atoms: _607  and  _609
REMARK  248  A    between atoms: _609  and  _610
REMARK  249  A    between atoms: _609  and  _612
REMARK  250  A    between atoms: _612  and  _613
REMARK  251  A    between atoms: _613  and  _614
REMARK  252  A    between atoms: _616  and  _618
REMARK  253  A    between atoms: _618  and  _619
REMARK  254  A    between atoms: _618  and  _621
REMARK  255  A    between atoms: _621  and  _622
REMARK  256  A    between atoms: _632  and  _634
REMARK  257  A    between atoms: _634  and  _635
REMARK  258  A    between atoms: _634  and  _637
REMARK  259  A    between atoms: _637  and  _638
REMARK  260  A    between atoms: _641  and  _643
REMARK  261  A    between atoms: _643  and  _644
REMARK  262  A    between atoms: _643  and  _646
REMARK  263  A    between atoms: _646  and  _647
REMARK                            x       y       z     vdW  Elec       q    Type
REMARK                         _______ _______ _______ _____ _____    ______ ____
ROOT
ATOM      1  C   LEU A   1      -5.316  -2.563 -26.875  0.00  0.00    +0.238 C 
ATOM      2  O   LEU A   1      -5.214  -3.314 -25.930  0.00  0.00    -0.274 OA
ATOM      3  N   THR A   2      -5.870  -2.923 -28.046  0.00  0.00    -0.296 N 
ATOM      4  H   THR A   2      -5.801  -2.293 -28.870  0.00  0.00    +0.150 HD
ENDROOT
BRANCH   1   5
ATOM      5  CA  LEU A   1      -4.771  -1.128 -26.713  0.00  0.00    +0.145 C 
BRANCH   5   6
ATOM      6  N   LEU A   1      -4.624  -0.284 -27.867  0.00  0.00    -0.238 NA
ATOM      7  H   LEU A   1      -5.458   0.019 -28.409  0.00  0.00    +0.142 HD
ENDBRANCH   5   6
BRANCH   5   8
ATOM      8  CB  LEU A   1      -5.649  -0.428 -25.709  0.00  0.00    +0.026 C 
BRANCH   8   9
ATOM      9  CG  LEU A   1      -5.200   0.968 -25.219  0.00  0.00    +0.002 C 
ATOM     10  CD2 LEU A   1      -6.218   1.468 -24.134  0.00  0.00    +0.000 C 
ATOM     11  CD1 LEU A   1      -3.786   0.969 -24.689  0.00  0.00    +0.000 C 
ENDBRANCH   8   9
ENDBRANCH   5   8
ENDBRANCH   1   5
BRANCH   3  12
ATOM     12  CA  THR A   2      -6.582  -4.225 -28.161  0.00  0.00    +0.164 C 
BRANCH  12  13
ATOM     13  CB  THR A   2      -7.996  -4.097 -28.700  0.00  0.00    +0.136 C 
ATOM     14  CG2 THR A   2      -8.782  -3.158 -27.853  0.00  0.00    +0.034 C 
BRANCH  13  15
ATOM     15  OG1 THR A   2      -7.975  -3.624 -30.058  0.00  0.00    -0.382 OA
ATOM     16  HG1 THR A   2      -7.536  -2.737 -30.091  0.00  0.00    +0.210 HD
ENDBRANCH  13  15
ENDBRANCH  12  13
BRANCH  12  17
ATOM     17  C   THR A   2      -5.866  -5.247 -29.008  0.00  0.00    +0.229 C 
ATOM     18  O   THR A   2      -4.886  -4.925 -29.677  0.00  0.00    -0.286 OA
ENDBRANCH  12  17
ENDBRANCH   3  12
TORSDOF 8
REMARK  Name = ../refined-set-2016/3vw1/3vw1_pocket.pdb
REMARK  263 active torsions:
REMARK  status: ('A' for Active; 'I' for Inactive)
REMARK    1  A    between atoms: _1  and  _3
REMARK    2  A    between atoms: _3  and  _4
REMARK    3  A    between atoms: _3  and  _6
REMARK    4  A    between atoms: _6  and  _7
REMARK    5  A    between atoms: _12  and  _13
REMARK    6  A    between atoms: _15  and  _17
REMARK    7  A    between atoms: _17  and  _18
REMARK    8  A    between atoms: _17  and  _20
REMARK    9  A    between atoms: _20  and  _21
REMARK   10  A    between atoms: _24  and  _26
REMARK   11  A    between atoms: _26  and  _27
REMARK   12  A    between atoms: _26  and  _29
REMARK   13  A    between atoms: _29  and  _30
REMARK   14  A    between atoms: _30  and  _31
REMARK   15  A    between atoms: _31  and  _32
REMARK   16  A    between atoms: _32  and  _33
REMARK   17  A    between atoms: _37  and  _39
REMARK   18  A    between atoms: _39  and  _40
REMARK   19  A    between atoms: _39  and  _42
REMARK   20  A    between atoms: _42  and  _43
REMARK   21  A    between atoms: _43  and  _44
REMARK   22  A    between atoms: _49  and  _51
REMARK   23  A    between atoms: _51  and  _52
REMARK   24  A    between atoms: _51  and  _54
REMARK   25  A    between atoms: _54  and  _55
REMARK   26  A    between atoms: _58  and  _60
REMARK   27  A    between atoms: _60  and  _61
REMARK   28  A    between atoms: _60  and  _63
REMARK   29  A    between atoms: _63  and  _64
REMARK   30  A    between atoms: _67  and  _69
REMARK   31  A    between atoms: _69  and  _70
REMARK   32  A    between atoms: _69  and  _72
REMARK   33  A    between atoms: _74  and  _76
REMARK   34  A    between atoms: _76  and  _77
REMARK   35  A    between atoms: _76  and  _79
REMARK   36  A    between atoms: _79  and  _80
REMARK   37  A    between atoms: _80  and  _81
REMARK   38  A    between atoms: _86  and  _88
REMARK   39  A    between atoms: _88  and  _89
REMARK   40  A    between atoms: _88  and  _91
REMARK   41  A    between atoms: _91  and  _92
REMARK   42  A    between atoms: _94  and  _96
REMARK   43  A    between atoms: _96  and  _97
REMARK   44  A    between atoms: _96  and  _99
REMARK   45  A    between atoms: _99  and  _100
REMARK   46  A    between atoms: _100  and  _101
REMARK   47  A    between atoms: _103  and  _105
REMARK   48  A    between atoms: _105  and  _106
REMARK   49  A    between atoms: _105  and  _108
REMARK   50  A    between atoms: _108  and  _109
REMARK   51  A    between atoms: _112  and  _114
REMARK   52  A    between atoms: _114  and  _115
REMARK   53  A    between atoms: _114  and  _117
REMARK   54  A    between atoms: _117  and  _118
REMARK   55  A    between atoms: _118  and  _119
REMARK   56  A    between atoms: _121  and  _123
REMARK   57  A    between atoms: _123  and  _124
REMARK   58  A    between atoms: _123  and  _126
REMARK   59  A    between atoms: _126  and  _127
REMARK   60  A    between atoms: _127  and  _128
REMARK   61  A    between atoms: _131  and  _133
REMARK   62  A    between atoms: _133  and  _134
REMARK   63  A    between atoms: _133  and  _136
REMARK   64  A    between atoms: _136  and  _137
REMARK   65  A    between atoms: _140  and  _142
REMARK   66  A    between atoms: _142  and  _143
REMARK   67  A    between atoms: _146  and  _148
REMARK   68  A    between atoms: _148  and  _149
REMARK   69  A    between atoms: _148  and  _151
REMARK   70  A    between atoms: _151  and  _152
REMARK   71  A    between atoms: _152  and  _153
REMARK   72  A    between atoms: _155  and  _157
REMARK   73  A    between atoms: _157  and  _158
REMARK   74  A    between atoms: _157  and  _160
REMARK   75  A    between atoms: _160  and  _161
REMARK   76  A    between atoms: _164  and  _166
REMARK   77  A    between atoms: _166  and  _167
REMARK   78  A    between atoms: _166  and  _169
REMARK   79  A    between atoms: _169  and  _170
REMARK   80  A    between atoms: _170  and  _171
REMARK   81  A    between atoms: _171  and  _172
REMARK   82  A    between atoms: _181  and  _183
REMARK   83  A    between atoms: _183  and  _184
REMARK   84  A    between atoms: _183  and  _186
REMARK   85  A    between atoms: _186  and  _187
REMARK   86  A    between atoms: _193  and  _195
REMARK   87  A    between atoms: _195  and  _196
REMARK   88  A    between atoms: _195  and  _198
REMARK   89  A    between atoms: _198  and  _199
REMARK   90  A    between atoms: _202  and  _204
REMARK   91  A    between atoms: _204  and  _205
REMARK   92  A    between atoms: _204  and  _207
REMARK   93  A    between atoms: _207  and  _208
REMARK   94  A    between atoms: _218  and  _220
REMARK   95  A    between atoms: _220  and  _221
REMARK   96  A    between atoms: _220  and  _223
REMARK   97  A    between atoms: _223  and  _224
REMARK   98  A    between atoms: _229  and  _231
REMARK   99  A    between atoms: _231  and  _232
REMARK  100  A    between atoms: _231  and  _234
REMARK  101  A    between atoms: _234  and  _235
REMARK  102  A    between atoms: _237  and  _239
REMARK  103  A    between atoms: _239  and  _240
REMARK  104  A    between atoms: _239  and  _242
REMARK  105  A    between atoms: _242  and  _243
REMARK  106  A    between atoms: _248  and  _249
REMARK  107  A    between atoms: _251  and  _253
REMARK  108  A    between atoms: _253  and  _254
REMARK  109  A    between atoms: _253  and  _256
REMARK  110  A    between atoms: _256  and  _257
REMARK  111  A    between atoms: _260  and  _262
REMARK  112  A    between atoms: _262  and  _263
REMARK  113  A    between atoms: _262  and  _265
REMARK  114  A    between atoms: _265  and  _266
REMARK  115  A    between atoms: _268  and  _270
REMARK  116  A    between atoms: _270  and  _271
REMARK  117  A    between atoms: _270  and  _273
REMARK  118  A    between atoms: _273  and  _274
REMARK  119  A    between atoms: _284  and  _286
REMARK  120  A    between atoms: _286  and  _287
REMARK  121  A    between atoms: _289  and  _291
REMARK  122  A    between atoms: _291  and  _292
REMARK  123  A    between atoms: _291  and  _294
REMARK  124  A    between atoms: _294  and  _295
REMARK  125  A    between atoms: _295  and  _296
REMARK  126  A    between atoms: _296  and  _297
REMARK  127  A    between atoms: _306  and  _308
REMARK  128  A    between atoms: _308  and  _309
REMARK  129  A    between atoms: _308  and  _311
REMARK  130  A    between atoms: _311  and  _312
REMARK  131  A    between atoms: _317  and  _319
REMARK  132  A    between atoms: _319  and  _320
REMARK  133  A    between atoms: _323  and  _325
REMARK  134  A    between atoms: _325  and  _326
REMARK  135  A    between atoms: _325  and  _328
REMARK  136  A    between atoms: _328  and  _329
REMARK  137  A    between atoms: _332  and  _334
REMARK  138  A    between atoms: _334  and  _335
REMARK  139  A    between atoms: _334  and  _337
REMARK  140  A    between atoms: _337  and  _338
REMARK  141  A    between atoms: _338  and  _339
REMARK  142  A    between atoms: _339  and  _340
REMARK  143  A    between atoms: _349  and  _351
REMARK  144  A    between atoms: _351  and  _352
REMARK  145  A    between atoms: _351  and  _354
REMARK  146  A    between atoms: _354  and  _355
REMARK  147  A    between atoms: _355  and  _356
REMARK  148  A    between atoms: _361  and  _363
REMARK  149  A    between atoms: _363  and  _364
REMARK  150  A    between atoms: _363  and  _366
REMARK  151  A    between atoms: _366  and  _367
REMARK  152  A    between atoms: _370  and  _372
REMARK  153  A    between atoms: _372  and  _373
REMARK  154  A    between atoms: _376  and  _378
REMARK  155  A    between atoms: _378  and  _379
REMARK  156  A    between atoms: _378  and  _381
REMARK  157  A    between atoms: _384  and  _386
REMARK  158  A    between atoms: _386  and  _387
REMARK  159  A    between atoms: _386  and  _389
REMARK  160  A    between atoms: _389  and  _390
REMARK  161  A    between atoms: _393  and  _395
REMARK  162  A    between atoms: _395  and  _396
REMARK  163  A    between atoms: _399  and  _401
REMARK  164  A    between atoms: _401  and  _402
REMARK  165  A    between atoms: _401  and  _404
REMARK  166  A    between atoms: _404  and  _405
REMARK  167  A    between atoms: _408  and  _410
REMARK  168  A    between atoms: _410  and  _411
REMARK  169  A    between atoms: _410  and  _413
REMARK  170  A    between atoms: _413  and  _414
REMARK  171  A    between atoms: _414  and  _415
REMARK  172  A    between atoms: _417  and  _419
REMARK  173  A    between atoms: _419  and  _420
REMARK  174  A    between atoms: _419  and  _422
REMARK  175  A    between atoms: _422  and  _423
REMARK  176  A    between atoms: _429  and  _431
REMARK  177  A    between atoms: _431  and  _432
REMARK  178  A    between atoms: _431  and  _434
REMARK  179  A    between atoms: _434  and  _435
REMARK  180  A    between atoms: _438  and  _440
REMARK  181  A    between atoms: _440  and  _441
REMARK  182  A    between atoms: _440  and  _443
REMARK  183  A    between atoms: _443  and  _444
REMARK  184  A    between atoms: _444  and  _445
REMARK  185  A    between atoms: _445  and  _446
REMARK  186  A    between atoms: _455  and  _457
REMARK  187  A    between atoms: _457  and  _458
REMARK  188  A    between atoms: _457  and  _460
REMARK  189  A    between atoms: _460  and  _461
REMARK  190  A    between atoms: _464  and  _466
REMARK  191  A    between atoms: _466  and  _467
REMARK  192  A    between atoms: _466  and  _469
REMARK  193  A    between atoms: _471  and  _473
REMARK  194  A    between atoms: _473  and  _474
REMARK  195  A    between atoms: _473  and  _476
REMARK  196  A    between atoms: _476  and  _477
REMARK  197  A    between atoms: _479  and  _481
REMARK  198  A    between atoms: _481  and  _482
REMARK  199  A    between atoms: _481  and  _484
REMARK  200  A    between atoms: _487  and  _489
REMARK  201  A    between atoms: _489  and  _490
REMARK  202  A    between atoms: _489  and  _492
REMARK  203  A    between atoms: _492  and  _493
REMARK  204  A    between atoms: _496  and  _498
REMARK  205  A    between atoms: _498  and  _499
REMARK  206  A    between atoms: _498  and  _501
REMARK  207  A    between atoms: _501  and  _502
REMARK  208  A    between atoms: _508  and  _510
REMARK  209  A    between atoms: _510  and  _511
REMARK  210  A    between atoms: _510  and  _513
REMARK  211  A    between atoms: _513  and  _514
REMARK  212  A    between atoms: _514  and  _515
REMARK  213  A    between atoms: _517  and  _519
REMARK  214  A    between atoms: _519  and  _520
REMARK  215  A    between atoms: _519  and  _522
REMARK  216  A    between atoms: _522  and  _523
REMARK  217  A    between atoms: _523  and  _524
REMARK  218  A    between atoms: _524  and  _525
REMARK  219  A    between atoms: _534  and  _536
REMARK  220  A    between atoms: _536  and  _537
REMARK  221  A    between atoms: _540  and  _542
REMARK  222  A    between atoms: _542  and  _543
REMARK  223  A    between atoms: _545  and  _547
REMARK  224  A    between atoms: _547  and  _548
REMARK  225  A    between atoms: _547  and  _550
REMARK  226  A    between atoms: _550  and  _551
REMARK  227  A    between atoms: _554  and  _556
REMARK  228  A    between atoms: _556  and  _557
REMARK  229  A    between atoms: _559  and  _561
REMARK  230  A    between atoms: _561  and  _562
REMARK  231  A    between atoms: _561  and  _564
REMARK  232  A    between atoms: _564  and  _565
REMARK  233  A    between atoms: _568  and  _570
REMARK  234  A    between atoms: _570  and  _571
REMARK  235  A    between atoms: _570  and  _573
REMARK  236  A    between atoms: _573  and  _574
REMARK  237  A    between atoms: _580  and  _582
REMARK  238  A    between atoms: _582  and  _583
REMARK  239  A    between atoms: _582  and  _585
REMARK  240  A    between atoms: _585  and  _586
REMARK  241  A    between atoms: _589  and  _591
REMARK  242  A    between atoms: _591  and  _592
REMARK  243  A    between atoms: _595  and  _597
REMARK  244  A    between atoms: _597  and  _598
REMARK  245  A    between atoms: _597  and  _600
REMARK  246  A    between atoms: _600  and  _601
REMARK  247  A    between atoms: _607  and  _609
REMARK  248  A    between atoms: _609  and  _610
REMARK  249  A    between atoms: _609  and  _612
REMARK  250  A    between atoms: _612  and  _613
REMARK  251  A    between atoms: _613  and  _614
REMARK  252  A    between atoms: _616  and  _618
REMARK  253  A    between atoms: _618  and  _619
REMARK  254  A    between atoms: _618  and  _621
REMARK  255  A    between atoms: _621  and  _622
REMARK  256  A    between atoms: _632  and  _634
REMARK  257  A    between atoms: _634  and  _635
REMARK  258  A    between atoms: _634  and  _637
REMARK  259  A    between atoms: _637  and  _638
REMARK  260  A    between atoms: _641  and  _643
REMARK  261  A    between atoms: _643  and  _644
REMARK  262  A    between atoms: _643  and  _646
REMARK  263  A    between atoms: _646  and  _647
REMARK                            x       y       z     vdW  Elec       q    Type
REMARK                         _______ _______ _______ _____ _____    ______ ____
ROOT
ATOM      1  O   HOH     1     -12.997  -3.412 -24.402  0.00  0.00    +0.000 OA
ENDROOT
TORSDOF 0
REMARK  Name = ../refined-set-2016/3vw1/3vw1_pocket.pdb
REMARK  263 active torsions:
REMARK  status: ('A' for Active; 'I' for Inactive)
REMARK    1  A    between atoms: _1  and  _3
REMARK    2  A    between atoms: _3  and  _4
REMARK    3  A    between atoms: _3  and  _6
REMARK    4  A    between atoms: _6  and  _7
REMARK    5  A    between atoms: _12  and  _13
REMARK    6  A    between atoms: _15  and  _17
REMARK    7  A    between atoms: _17  and  _18
REMARK    8  A    between atoms: _17  and  _20
REMARK    9  A    between atoms: _20  and  _21
REMARK   10  A    between atoms: _24  and  _26
REMARK   11  A    between atoms: _26  and  _27
REMARK   12  A    between atoms: _26  and  _29
REMARK   13  A    between atoms: _29  and  _30
REMARK   14  A    between atoms: _30  and  _31
REMARK   15  A    between atoms: _31  and  _32
REMARK   16  A    between atoms: _32  and  _33
REMARK   17  A    between atoms: _37  and  _39
REMARK   18  A    between atoms: _39  and  _40
REMARK   19  A    between atoms: _39  and  _42
REMARK   20  A    between atoms: _42  and  _43
REMARK   21  A    between atoms: _43  and  _44
REMARK   22  A    between atoms: _49  and  _51
REMARK   23  A    between atoms: _51  and  _52
REMARK   24  A    between atoms: _51  and  _54
REMARK   25  A    between atoms: _54  and  _55
REMARK   26  A    between atoms: _58  and  _60
REMARK   27  A    between atoms: _60  and  _61
REMARK   28  A    between atoms: _60  and  _63
REMARK   29  A    between atoms: _63  and  _64
REMARK   30  A    between atoms: _67  and  _69
REMARK   31  A    between atoms: _69  and  _70
REMARK   32  A    between atoms: _69  and  _72
REMARK   33  A    between atoms: _74  and  _76
REMARK   34  A    between atoms: _76  and  _77
REMARK   35  A    between atoms: _76  and  _79
REMARK   36  A    between atoms: _79  and  _80
REMARK   37  A    between atoms: _80  and  _81
REMARK   38  A    between atoms: _86  and  _88
REMARK   39  A    between atoms: _88  and  _89
REMARK   40  A    between atoms: _88  and  _91
REMARK   41  A    between atoms: _91  and  _92
REMARK   42  A    between atoms: _94  and  _96
REMARK   43  A    between atoms: _96  and  _97
REMARK   44  A    between atoms: _96  and  _99
REMARK   45  A    between atoms: _99  and  _100
REMARK   46  A    between atoms: _100  and  _101
REMARK   47  A    between atoms: _103  and  _105
REMARK   48  A    between atoms: _105  and  _106
REMARK   49  A    between atoms: _105  and  _108
REMARK   50  A    between atoms: _108  and  _109
REMARK   51  A    between atoms: _112  and  _114
REMARK   52  A    between atoms: _114  and  _115
REMARK   53  A    between atoms: _114  and  _117
REMARK   54  A    between atoms: _117  and  _118
REMARK   55  A    between atoms: _118  and  _119
REMARK   56  A    between atoms: _121  and  _123
REMARK   57  A    between atoms: _123  and  _124
REMARK   58  A    between atoms: _123  and  _126
REMARK   59  A    between atoms: _126  and  _127
REMARK   60  A    between atoms: _127  and  _128
REMARK   61  A    between atoms: _131  and  _133
REMARK   62  A    between atoms: _133  and  _134
REMARK   63  A    between atoms: _133  and  _136
REMARK   64  A    between atoms: _136  and  _137
REMARK   65  A    between atoms: _140  and  _142
REMARK   66  A    between atoms: _142  and  _143
REMARK   67  A    between atoms: _146  and  _148
REMARK   68  A    between atoms: _148  and  _149
REMARK   69  A    between atoms: _148  and  _151
REMARK   70  A    between atoms: _151  and  _152
REMARK   71  A    between atoms: _152  and  _153
REMARK   72  A    between atoms: _155  and  _157
REMARK   73  A    between atoms: _157  and  _158
REMARK   74  A    between atoms: _157  and  _160
REMARK   75  A    between atoms: _160  and  _161
REMARK   76  A    between atoms: _164  and  _166
REMARK   77  A    between atoms: _166  and  _167
REMARK   78  A    between atoms: _166  and  _169
REMARK   79  A    between atoms: _169  and  _170
REMARK   80  A    between atoms: _170  and  _171
REMARK   81  A    between atoms: _171  and  _172
REMARK   82  A    between atoms: _181  and  _183
REMARK   83  A    between atoms: _183  and  _184
REMARK   84  A    between atoms: _183  and  _186
REMARK   85  A    between atoms: _186  and  _187
REMARK   86  A    between atoms: _193  and  _195
REMARK   87  A    between atoms: _195  and  _196
REMARK   88  A    between atoms: _195  and  _198
REMARK   89  A    between atoms: _198  and  _199
REMARK   90  A    between atoms: _202  and  _204
REMARK   91  A    between atoms: _204  and  _205
REMARK   92  A    between atoms: _204  and  _207
REMARK   93  A    between atoms: _207  and  _208
REMARK   94  A    between atoms: _218  and  _220
REMARK   95  A    between atoms: _220  and  _221
REMARK   96  A    between atoms: _220  and  _223
REMARK   97  A    between atoms: _223  and  _224
REMARK   98  A    between atoms: _229  and  _231
REMARK   99  A    between atoms: _231  and  _232
REMARK  100  A    between atoms: _231  and  _234
REMARK  101  A    between atoms: _234  and  _235
REMARK  102  A    between atoms: _237  and  _239
REMARK  103  A    between atoms: _239  and  _240
REMARK  104  A    between atoms: _239  and  _242
REMARK  105  A    between atoms: _242  and  _243
REMARK  106  A    between atoms: _248  and  _249
REMARK  107  A    between atoms: _251  and  _253
REMARK  108  A    between atoms: _253  and  _254
REMARK  109  A    between atoms: _253  and  _256
REMARK  110  A    between atoms: _256  and  _257
REMARK  111  A    between atoms: _260  and  _262
REMARK  112  A    between atoms: _262  and  _263
REMARK  113  A    between atoms: _262  and  _265
REMARK  114  A    between atoms: _265  and  _266
REMARK  115  A    between atoms: _268  and  _270
REMARK  116  A    between atoms: _270  and  _271
REMARK  117  A    between atoms: _270  and  _273
REMARK  118  A    between atoms: _273  and  _274
REMARK  119  A    between atoms: _284  and  _286
REMARK  120  A    between atoms: _286  and  _287
REMARK  121  A    between atoms: _289  and  _291
REMARK  122  A    between atoms: _291  and  _292
REMARK  123  A    between atoms: _291  and  _294
REMARK  124  A    between atoms: _294  and  _295
REMARK  125  A    between atoms: _295  and  _296
REMARK  126  A    between atoms: _296  and  _297
REMARK  127  A    between atoms: _306  and  _308
REMARK  128  A    between atoms: _308  and  _309
REMARK  129  A    between atoms: _308  and  _311
REMARK  130  A    between atoms: _311  and  _312
REMARK  131  A    between atoms: _317  and  _319
REMARK  132  A    between atoms: _319  and  _320
REMARK  133  A    between atoms: _323  and  _325
REMARK  134  A    between atoms: _325  and  _326
REMARK  135  A    between atoms: _325  and  _328
REMARK  136  A    between atoms: _328  and  _329
REMARK  137  A    between atoms: _332  and  _334
REMARK  138  A    between atoms: _334  and  _335
REMARK  139  A    between atoms: _334  and  _337
REMARK  140  A    between atoms: _337  and  _338
REMARK  141  A    between atoms: _338  and  _339
REMARK  142  A    between atoms: _339  and  _340
REMARK  143  A    between atoms: _349  and  _351
REMARK  144  A    between atoms: _351  and  _352
REMARK  145  A    between atoms: _351  and  _354
REMARK  146  A    between atoms: _354  and  _355
REMARK  147  A    between atoms: _355  and  _356
REMARK  148  A    between atoms: _361  and  _363
REMARK  149  A    between atoms: _363  and  _364
REMARK  150  A    between atoms: _363  and  _366
REMARK  151  A    between atoms: _366  and  _367
REMARK  152  A    between atoms: _370  and  _372
REMARK  153  A    between atoms: _372  and  _373
REMARK  154  A    between atoms: _376  and  _378
REMARK  155  A    between atoms: _378  and  _379
REMARK  156  A    between atoms: _378  and  _381
REMARK  157  A    between atoms: _384  and  _386
REMARK  158  A    between atoms: _386  and  _387
REMARK  159  A    between atoms: _386  and  _389
REMARK  160  A    between atoms: _389  and  _390
REMARK  161  A    between atoms: _393  and  _395
REMARK  162  A    between atoms: _395  and  _396
REMARK  163  A    between atoms: _399  and  _401
REMARK  164  A    between atoms: _401  and  _402
REMARK  165  A    between atoms: _401  and  _404
REMARK  166  A    between atoms: _404  and  _405
REMARK  167  A    between atoms: _408  and  _410
REMARK  168  A    between atoms: _410  and  _411
REMARK  169  A    between atoms: _410  and  _413
REMARK  170  A    between atoms: _413  and  _414
REMARK  171  A    between atoms: _414  and  _415
REMARK  172  A    between atoms: _417  and  _419
REMARK  173  A    between atoms: _419  and  _420
REMARK  174  A    between atoms: _419  and  _422
REMARK  175  A    between atoms: _422  and  _423
REMARK  176  A    between atoms: _429  and  _431
REMARK  177  A    between atoms: _431  and  _432
REMARK  178  A    between atoms: _431  and  _434
REMARK  179  A    between atoms: _434  and  _435
REMARK  180  A    between atoms: _438  and  _440
REMARK  181  A    between atoms: _440  and  _441
REMARK  182  A    between atoms: _440  and  _443
REMARK  183  A    between atoms: _443  and  _444
REMARK  184  A    between atoms: _444  and  _445
REMARK  185  A    between atoms: _445  and  _446
REMARK  186  A    between atoms: _455  and  _457
REMARK  187  A    between atoms: _457  and  _458
REMARK  188  A    between atoms: _457  and  _460
REMARK  189  A    between atoms: _460  and  _461
REMARK  190  A    between atoms: _464  and  _466
REMARK  191  A    between atoms: _466  and  _467
REMARK  192  A    between atoms: _466  and  _469
REMARK  193  A    between atoms: _471  and  _473
REMARK  194  A    between atoms: _473  and  _474
REMARK  195  A    between atoms: _473  and  _476
REMARK  196  A    between atoms: _476  and  _477
REMARK  197  A    between atoms: _479  and  _481
REMARK  198  A    between atoms: _481  and  _482
REMARK  199  A    between atoms: _481  and  _484
REMARK  200  A    between atoms: _487  and  _489
REMARK  201  A    between atoms: _489  and  _490
REMARK  202  A    between atoms: _489  and  _492
REMARK  203  A    between atoms: _492  and  _493
REMARK  204  A    between atoms: _496  and  _498
REMARK  205  A    between atoms: _498  and  _499
REMARK  206  A    between atoms: _498  and  _501
REMARK  207  A    between atoms: _501  and  _502
REMARK  208  A    between atoms: _508  and  _510
REMARK  209  A    between atoms: _510  and  _511
REMARK  210  A    between atoms: _510  and  _513
REMARK  211  A    between atoms: _513  and  _514
REMARK  212  A    between atoms: _514  and  _515
REMARK  213  A    between atoms: _517  and  _519
REMARK  214  A    between atoms: _519  and  _520
REMARK  215  A    between atoms: _519  and  _522
REMARK  216  A    between atoms: _522  and  _523
REMARK  217  A    between atoms: _523  and  _524
REMARK  218  A    between atoms: _524  and  _525
REMARK  219  A    between atoms: _534  and  _536
REMARK  220  A    between atoms: _536  and  _537
REMARK  221  A    between atoms: _540  and  _542
REMARK  222  A    between atoms: _542  and  _543
REMARK  223  A    between atoms: _545  and  _547
REMARK  224  A    between atoms: _547  and  _548
REMARK  225  A    between atoms: _547  and  _550
REMARK  226  A    between atoms: _550  and  _551
REMARK  227  A    between atoms: _554  and  _556
REMARK  228  A    between atoms: _556  and  _557
REMARK  229  A    between atoms: _559  and  _561
REMARK  230  A    between atoms: _561  and  _562
REMARK  231  A    between atoms: _561  and  _564
REMARK  232  A    between atoms: _564  and  _565
REMARK  233  A    between atoms: _568  and  _570
REMARK  234  A    between atoms: _570  and  _571
REMARK  235  A    between atoms: _570  and  _573
REMARK  236  A    between atoms: _573  and  _574
REMARK  237  A    between atoms: _580  and  _582
REMARK  238  A    between atoms: _582  and  _583
REMARK  239  A    between atoms: _582  and  _585
REMARK  240  A    between atoms: _585  and  _586
REMARK  241  A    between atoms: _589  and  _591
REMARK  242  A    between atoms: _591  and  _592
REMARK  243  A    between atoms: _595  and  _597
REMARK  244  A    between atoms: _597  and  _598
REMARK  245  A    between atoms: _597  and  _600
REMARK  246  A    between atoms: _600  and  _601
REMARK  247  A    between atoms: _607  and  _609
REMARK  248  A    between atoms: _609  and  _610
REMARK  249  A    between atoms: _609  and  _612
REMARK  250  A    between atoms: _612  and  _613
REMARK  251  A    between atoms: _613  and  _614
REMARK  252  A    between atoms: _616  and  _618
REMARK  253  A    between atoms: _618  and  _619
REMARK  254  A    between atoms: _618  and  _621
REMARK  255  A    between atoms: _621  and  _622
REMARK  256  A    between atoms: _632  and  _634
REMARK  257  A    between atoms: _634  and  _635
REMARK  258  A    between atoms: _634  and  _637
REMARK  259  A    between atoms: _637  and  _638
REMARK  260  A    between atoms: _641  and  _643
REMARK  261  A    between atoms: _643  and  _644
REMARK  262  A    between atoms: _643  and  _646
REMARK  263  A    between atoms: _646  and  _647
REMARK                            x       y       z     vdW  Elec       q    Type
REMARK                         _______ _______ _______ _____ _____    ______ ____
ROOT
ATOM      1  O   HOH     1     -15.117  -0.793 -14.756  0.00  0.00    +0.000 OA
ENDROOT
TORSDOF 0
REMARK  Name = ../refined-set-2016/3vw1/3vw1_pocket.pdb
REMARK  263 active torsions:
REMARK  status: ('A' for Active; 'I' for Inactive)
REMARK    1  A    between atoms: _1  and  _3
REMARK    2  A    between atoms: _3  and  _4
REMARK    3  A    between atoms: _3  and  _6
REMARK    4  A    between atoms: _6  and  _7
REMARK    5  A    between atoms: _12  and  _13
REMARK    6  A    between atoms: _15  and  _17
REMARK    7  A    between atoms: _17  and  _18
REMARK    8  A    between atoms: _17  and  _20
REMARK    9  A    between atoms: _20  and  _21
REMARK   10  A    between atoms: _24  and  _26
REMARK   11  A    between atoms: _26  and  _27
REMARK   12  A    between atoms: _26  and  _29
REMARK   13  A    between atoms: _29  and  _30
REMARK   14  A    between atoms: _30  and  _31
REMARK   15  A    between atoms: _31  and  _32
REMARK   16  A    between atoms: _32  and  _33
REMARK   17  A    between atoms: _37  and  _39
REMARK   18  A    between atoms: _39  and  _40
REMARK   19  A    between atoms: _39  and  _42
REMARK   20  A    between atoms: _42  and  _43
REMARK   21  A    between atoms: _43  and  _44
REMARK   22  A    between atoms: _49  and  _51
REMARK   23  A    between atoms: _51  and  _52
REMARK   24  A    between atoms: _51  and  _54
REMARK   25  A    between atoms: _54  and  _55
REMARK   26  A    between atoms: _58  and  _60
REMARK   27  A    between atoms: _60  and  _61
REMARK   28  A    between atoms: _60  and  _63
REMARK   29  A    between atoms: _63  and  _64
REMARK   30  A    between atoms: _67  and  _69
REMARK   31  A    between atoms: _69  and  _70
REMARK   32  A    between atoms: _69  and  _72
REMARK   33  A    between atoms: _74  and  _76
REMARK   34  A    between atoms: _76  and  _77
REMARK   35  A    between atoms: _76  and  _79
REMARK   36  A    between atoms: _79  and  _80
REMARK   37  A    between atoms: _80  and  _81
REMARK   38  A    between atoms: _86  and  _88
REMARK   39  A    between atoms: _88  and  _89
REMARK   40  A    between atoms: _88  and  _91
REMARK   41  A    between atoms: _91  and  _92
REMARK   42  A    between atoms: _94  and  _96
REMARK   43  A    between atoms: _96  and  _97
REMARK   44  A    between atoms: _96  and  _99
REMARK   45  A    between atoms: _99  and  _100
REMARK   46  A    between atoms: _100  and  _101
REMARK   47  A    between atoms: _103  and  _105
REMARK   48  A    between atoms: _105  and  _106
REMARK   49  A    between atoms: _105  and  _108
REMARK   50  A    between atoms: _108  and  _109
REMARK   51  A    between atoms: _112  and  _114
REMARK   52  A    between atoms: _114  and  _115
REMARK   53  A    between atoms: _114  and  _117
REMARK   54  A    between atoms: _117  and  _118
REMARK   55  A    between atoms: _118  and  _119
REMARK   56  A    between atoms: _121  and  _123
REMARK   57  A    between atoms: _123  and  _124
REMARK   58  A    between atoms: _123  and  _126
REMARK   59  A    between atoms: _126  and  _127
REMARK   60  A    between atoms: _127  and  _128
REMARK   61  A    between atoms: _131  and  _133
REMARK   62  A    between atoms: _133  and  _134
REMARK   63  A    between atoms: _133  and  _136
REMARK   64  A    between atoms: _136  and  _137
REMARK   65  A    between atoms: _140  and  _142
REMARK   66  A    between atoms: _142  and  _143
REMARK   67  A    between atoms: _146  and  _148
REMARK   68  A    between atoms: _148  and  _149
REMARK   69  A    between atoms: _148  and  _151
REMARK   70  A    between atoms: _151  and  _152
REMARK   71  A    between atoms: _152  and  _153
REMARK   72  A    between atoms: _155  and  _157
REMARK   73  A    between atoms: _157  and  _158
REMARK   74  A    between atoms: _157  and  _160
REMARK   75  A    between atoms: _160  and  _161
REMARK   76  A    between atoms: _164  and  _166
REMARK   77  A    between atoms: _166  and  _167
REMARK   78  A    between atoms: _166  and  _169
REMARK   79  A    between atoms: _169  and  _170
REMARK   80  A    between atoms: _170  and  _171
REMARK   81  A    between atoms: _171  and  _172
REMARK   82  A    between atoms: _181  and  _183
REMARK   83  A    between atoms: _183  and  _184
REMARK   84  A    between atoms: _183  and  _186
REMARK   85  A    between atoms: _186  and  _187
REMARK   86  A    between atoms: _193  and  _195
REMARK   87  A    between atoms: _195  and  _196
REMARK   88  A    between atoms: _195  and  _198
REMARK   89  A    between atoms: _198  and  _199
REMARK   90  A    between atoms: _202  and  _204
REMARK   91  A    between atoms: _204  and  _205
REMARK   92  A    between atoms: _204  and  _207
REMARK   93  A    between atoms: _207  and  _208
REMARK   94  A    between atoms: _218  and  _220
REMARK   95  A    between atoms: _220  and  _221
REMARK   96  A    between atoms: _220  and  _223
REMARK   97  A    between atoms: _223  and  _224
REMARK   98  A    between atoms: _229  and  _231
REMARK   99  A    between atoms: _231  and  _232
REMARK  100  A    between atoms: _231  and  _234
REMARK  101  A    between atoms: _234  and  _235
REMARK  102  A    between atoms: _237  and  _239
REMARK  103  A    between atoms: _239  and  _240
REMARK  104  A    between atoms: _239  and  _242
REMARK  105  A    between atoms: _242  and  _243
REMARK  106  A    between atoms: _248  and  _249
REMARK  107  A    between atoms: _251  and  _253
REMARK  108  A    between atoms: _253  and  _254
REMARK  109  A    between atoms: _253  and  _256
REMARK  110  A    between atoms: _256  and  _257
REMARK  111  A    between atoms: _260  and  _262
REMARK  112  A    between atoms: _262  and  _263
REMARK  113  A    between atoms: _262  and  _265
REMARK  114  A    between atoms: _265  and  _266
REMARK  115  A    between atoms: _268  and  _270
REMARK  116  A    between atoms: _270  and  _271
REMARK  117  A    between atoms: _270  and  _273
REMARK  118  A    between atoms: _273  and  _274
REMARK  119  A    between atoms: _284  and  _286
REMARK  120  A    between atoms: _286  and  _287
REMARK  121  A    between atoms: _289  and  _291
REMARK  122  A    between atoms: _291  and  _292
REMARK  123  A    between atoms: _291  and  _294
REMARK  124  A    between atoms: _294  and  _295
REMARK  125  A    between atoms: _295  and  _296
REMARK  126  A    between atoms: _296  and  _297
REMARK  127  A    between atoms: _306  and  _308
REMARK  128  A    between atoms: _308  and  _309
REMARK  129  A    between atoms: _308  and  _311
REMARK  130  A    between atoms: _311  and  _312
REMARK  131  A    between atoms: _317  and  _319
REMARK  132  A    between atoms: _319  and  _320
REMARK  133  A    between atoms: _323  and  _325
REMARK  134  A    between atoms: _325  and  _326
REMARK  135  A    between atoms: _325  and  _328
REMARK  136  A    between atoms: _328  and  _329
REMARK  137  A    between atoms: _332  and  _334
REMARK  138  A    between atoms: _334  and  _335
REMARK  139  A    between atoms: _334  and  _337
REMARK  140  A    between atoms: _337  and  _338
REMARK  141  A    between atoms: _338  and  _339
REMARK  142  A    between atoms: _339  and  _340
REMARK  143  A    between atoms: _349  and  _351
REMARK  144  A    between atoms: _351  and  _352
REMARK  145  A    between atoms: _351  and  _354
REMARK  146  A    between atoms: _354  and  _355
REMARK  147  A    between atoms: _355  and  _356
REMARK  148  A    between atoms: _361  and  _363
REMARK  149  A    between atoms: _363  and  _364
REMARK  150  A    between atoms: _363  and  _366
REMARK  151  A    between atoms: _366  and  _367
REMARK  152  A    between atoms: _370  and  _372
REMARK  153  A    between atoms: _372  and  _373
REMARK  154  A    between atoms: _376  and  _378
REMARK  155  A    between atoms: _378  and  _379
REMARK  156  A    between atoms: _378  and  _381
REMARK  157  A    between atoms: _384  and  _386
REMARK  158  A    between atoms: _386  and  _387
REMARK  159  A    between atoms: _386  and  _389
REMARK  160  A    between atoms: _389  and  _390
REMARK  161  A    between atoms: _393  and  _395
REMARK  162  A    between atoms: _395  and  _396
REMARK  163  A    between atoms: _399  and  _401
REMARK  164  A    between atoms: _401  and  _402
REMARK  165  A    between atoms: _401  and  _404
REMARK  166  A    between atoms: _404  and  _405
REMARK  167  A    between atoms: _408  and  _410
REMARK  168  A    between atoms: _410  and  _411
REMARK  169  A    between atoms: _410  and  _413
REMARK  170  A    between atoms: _413  and  _414
REMARK  171  A    between atoms: _414  and  _415
REMARK  172  A    between atoms: _417  and  _419
REMARK  173  A    between atoms: _419  and  _420
REMARK  174  A    between atoms: _419  and  _422
REMARK  175  A    between atoms: _422  and  _423
REMARK  176  A    between atoms: _429  and  _431
REMARK  177  A    between atoms: _431  and  _432
REMARK  178  A    between atoms: _431  and  _434
REMARK  179  A    between atoms: _434  and  _435
REMARK  180  A    between atoms: _438  and  _440
REMARK  181  A    between atoms: _440  and  _441
REMARK  182  A    between atoms: _440  and  _443
REMARK  183  A    between atoms: _443  and  _444
REMARK  184  A    between atoms: _444  and  _445
REMARK  185  A    between atoms: _445  and  _446
REMARK  186  A    between atoms: _455  and  _457
REMARK  187  A    between atoms: _457  and  _458
REMARK  188  A    between atoms: _457  and  _460
REMARK  189  A    between atoms: _460  and  _461
REMARK  190  A    between atoms: _464  and  _466
REMARK  191  A    between atoms: _466  and  _467
REMARK  192  A    between atoms: _466  and  _469
REMARK  193  A    between atoms: _471  and  _473
REMARK  194  A    between atoms: _473  and  _474
REMARK  195  A    between atoms: _473  and  _476
REMARK  196  A    between atoms: _476  and  _477
REMARK  197  A    between atoms: _479  and  _481
REMARK  198  A    between atoms: _481  and  _482
REMARK  199  A    between atoms: _481  and  _484
REMARK  200  A    between atoms: _487  and  _489
REMARK  201  A    between atoms: _489  and  _490
REMARK  202  A    between atoms: _489  and  _492
REMARK  203  A    between atoms: _492  and  _493
REMARK  204  A    between atoms: _496  and  _498
REMARK  205  A    between atoms: _498  and  _499
REMARK  206  A    between atoms: _498  and  _501
REMARK  207  A    between atoms: _501  and  _502
REMARK  208  A    between atoms: _508  and  _510
REMARK  209  A    between atoms: _510  and  _511
REMARK  210  A    between atoms: _510  and  _513
REMARK  211  A    between atoms: _513  and  _514
REMARK  212  A    between atoms: _514  and  _515
REMARK  213  A    between atoms: _517  and  _519
REMARK  214  A    between atoms: _519  and  _520
REMARK  215  A    between atoms: _519  and  _522
REMARK  216  A    between atoms: _522  and  _523
REMARK  217  A    between atoms: _523  and  _524
REMARK  218  A    between atoms: _524  and  _525
REMARK  219  A    between atoms: _534  and  _536
REMARK  220  A    between atoms: _536  and  _537
REMARK  221  A    between atoms: _540  and  _542
REMARK  222  A    between atoms: _542  and  _543
REMARK  223  A    between atoms: _545  and  _547
REMARK  224  A    between atoms: _547  and  _548
REMARK  225  A    between atoms: _547  and  _550
REMARK  226  A    between atoms: _550  and  _551
REMARK  227  A    between atoms: _554  and  _556
REMARK  228  A    between atoms: _556  and  _557
REMARK  229  A    between atoms: _559  and  _561
REMARK  230  A    between atoms: _561  and  _562
REMARK  231  A    between atoms: _561  and  _564
REMARK  232  A    between atoms: _564  and  _565
REMARK  233  A    between atoms: _568  and  _570
REMARK  234  A    between atoms: _570  and  _571
REMARK  235  A    between atoms: _570  and  _573
REMARK  236  A    between atoms: _573  and  _574
REMARK  237  A    between atoms: _580  and  _582
REMARK  238  A    between atoms: _582  and  _583
REMARK  239  A    between atoms: _582  and  _585
REMARK  240  A    between atoms: _585  and  _586
REMARK  241  A    between atoms: _589  and  _591
REMARK  242  A    between atoms: _591  and  _592
REMARK  243  A    between atoms: _595  and  _597
REMARK  244  A    between atoms: _597  and  _598
REMARK  245  A    between atoms: _597  and  _600
REMARK  246  A    between atoms: _600  and  _601
REMARK  247  A    between atoms: _607  and  _609
REMARK  248  A    between atoms: _609  and  _610
REMARK  249  A    between atoms: _609  and  _612
REMARK  250  A    between atoms: _612  and  _613
REMARK  251  A    between atoms: _613  and  _614
REMARK  252  A    between atoms: _616  and  _618
REMARK  253  A    between atoms: _618  and  _619
REMARK  254  A    between atoms: _618  and  _621
REMARK  255  A    between atoms: _621  and  _622
REMARK  256  A    between atoms: _632  and  _634
REMARK  257  A    between atoms: _634  and  _635
REMARK  258  A    between atoms: _634  and  _637
REMARK  259  A    between atoms: _637  and  _638
REMARK  260  A    between atoms: _641  and  _643
REMARK  261  A    between atoms: _643  and  _644
REMARK  262  A    between atoms: _643  and  _646
REMARK  263  A    between atoms: _646  and  _647
REMARK                            x       y       z     vdW  Elec       q    Type
REMARK                         _______ _______ _______ _____ _____    ______ ____
ROOT
ATOM      1  O   HOH     1     -11.404  -2.212 -17.948  0.00  0.00    +0.000 OA
ENDROOT
TORSDOF 0
