REMARK  Name = ../refined-set-2016/4cwn/4cwn_pocket.pdb
REMARK  234 active torsions:
REMARK  status: ('A' for Active; 'I' for Inactive)
REMARK    1  A    between atoms: _1  and  _3
REMARK    2  A    between atoms: _3  and  _4
REMARK    3  A    between atoms: _3  and  _6
REMARK    4  A    between atoms: _6  and  _7
REMARK    5  A    between atoms: _13  and  _15
REMARK    6  A    between atoms: _15  and  _16
REMARK    7  A    between atoms: _15  and  _18
REMARK    8  A    between atoms: _18  and  _19
REMARK    9  A    between atoms: _22  and  _24
REMARK   10  A    between atoms: _24  and  _25
REMARK   11  A    between atoms: _24  and  _27
REMARK   12  A    between atoms: _27  and  _28
REMARK   13  A    between atoms: _31  and  _33
REMARK   14  A    between atoms: _33  and  _34
REMARK   15  A    between atoms: _33  and  _36
REMARK   16  A    between atoms: _36  and  _37
REMARK   17  A    between atoms: _37  and  _38
REMARK   18  A    between atoms: _41  and  _43
REMARK   19  A    between atoms: _43  and  _44
REMARK   20  A    between atoms: _43  and  _46
REMARK   21  A    between atoms: _46  and  _47
REMARK   22  A    between atoms: _50  and  _52
REMARK   23  A    between atoms: _52  and  _53
REMARK   24  A    between atoms: _52  and  _55
REMARK   25  A    between atoms: _55  and  _56
REMARK   26  A    between atoms: _59  and  _61
REMARK   27  A    between atoms: _61  and  _62
REMARK   28  A    between atoms: _61  and  _64
REMARK   29  A    between atoms: _64  and  _65
REMARK   30  A    between atoms: _67  and  _69
REMARK   31  A    between atoms: _69  and  _70
REMARK   32  A    between atoms: _69  and  _72
REMARK   33  A    between atoms: _72  and  _73
REMARK   34  A    between atoms: _78  and  _80
REMARK   35  A    between atoms: _80  and  _81
REMARK   36  A    between atoms: _80  and  _83
REMARK   37  A    between atoms: _83  and  _84
REMARK   38  A    between atoms: _86  and  _88
REMARK   39  A    between atoms: _88  and  _89
REMARK   40  A    between atoms: _88  and  _91
REMARK   41  A    between atoms: _91  and  _92
REMARK   42  A    between atoms: _94  and  _96
REMARK   43  A    between atoms: _96  and  _97
REMARK   44  A    between atoms: _96  and  _99
REMARK   45  A    between atoms: _99  and  _100
REMARK   46  A    between atoms: _103  and  _105
REMARK   47  A    between atoms: _105  and  _106
REMARK   48  A    between atoms: _109  and  _111
REMARK   49  A    between atoms: _111  and  _112
REMARK   50  A    between atoms: _111  and  _114
REMARK   51  A    between atoms: _114  and  _115
REMARK   52  A    between atoms: _118  and  _120
REMARK   53  A    between atoms: _120  and  _121
REMARK   54  A    between atoms: _120  and  _123
REMARK   55  A    between atoms: _123  and  _124
REMARK   56  A    between atoms: _124  and  _125
REMARK   57  A    between atoms: _125  and  _126
REMARK   58  A    between atoms: _126  and  _127
REMARK   59  A    between atoms: _131  and  _133
REMARK   60  A    between atoms: _133  and  _134
REMARK   61  A    between atoms: _133  and  _136
REMARK   62  A    between atoms: _136  and  _137
REMARK   63  A    between atoms: _140  and  _142
REMARK   64  A    between atoms: _142  and  _143
REMARK   65  A    between atoms: _142  and  _145
REMARK   66  A    between atoms: _145  and  _146
REMARK   67  A    between atoms: _149  and  _151
REMARK   68  A    between atoms: _151  and  _152
REMARK   69  A    between atoms: _151  and  _154
REMARK   70  A    between atoms: _157  and  _159
REMARK   71  A    between atoms: _159  and  _160
REMARK   72  A    between atoms: _159  and  _162
REMARK   73  A    between atoms: _162  and  _163
REMARK   74  A    between atoms: _166  and  _168
REMARK   75  A    between atoms: _168  and  _169
REMARK   76  A    between atoms: _168  and  _171
REMARK   77  A    between atoms: _171  and  _172
REMARK   78  A    between atoms: _175  and  _177
REMARK   79  A    between atoms: _177  and  _178
REMARK   80  A    between atoms: _180  and  _182
REMARK   81  A    between atoms: _182  and  _183
REMARK   82  A    between atoms: _182  and  _185
REMARK   83  A    between atoms: _185  and  _186
REMARK   84  A    between atoms: _189  and  _191
REMARK   85  A    between atoms: _191  and  _192
REMARK   86  A    between atoms: _194  and  _196
REMARK   87  A    between atoms: _196  and  _197
REMARK   88  A    between atoms: _196  and  _199
REMARK   89  A    between atoms: _199  and  _200
REMARK   90  A    between atoms: _200  and  _201
REMARK   91  A    between atoms: _203  and  _205
REMARK   92  A    between atoms: _205  and  _206
REMARK   93  A    between atoms: _205  and  _208
REMARK   94  A    between atoms: _208  and  _209
REMARK   95  A    between atoms: _212  and  _214
REMARK   96  A    between atoms: _214  and  _215
REMARK   97  A    between atoms: _214  and  _217
REMARK   98  A    between atoms: _217  and  _218
REMARK   99  A    between atoms: _221  and  _223
REMARK  100  A    between atoms: _223  and  _224
REMARK  101  A    between atoms: _223  and  _226
REMARK  102  A    between atoms: _226  and  _227
REMARK  103  A    between atoms: _230  and  _232
REMARK  104  A    between atoms: _232  and  _233
REMARK  105  A    between atoms: _232  and  _235
REMARK  106  A    between atoms: _235  and  _236
REMARK  107  A    between atoms: _239  and  _241
REMARK  108  A    between atoms: _241  and  _242
REMARK  109  A    between atoms: _241  and  _244
REMARK  110  A    between atoms: _244  and  _245
REMARK  111  A    between atoms: _250  and  _252
REMARK  112  A    between atoms: _252  and  _253
REMARK  113  A    between atoms: _252  and  _255
REMARK  114  A    between atoms: _255  and  _256
REMARK  115  A    between atoms: _259  and  _261
REMARK  116  A    between atoms: _261  and  _262
REMARK  117  A    between atoms: _264  and  _266
REMARK  118  A    between atoms: _266  and  _267
REMARK  119  A    between atoms: _266  and  _269
REMARK  120  A    between atoms: _269  and  _270
REMARK  121  A    between atoms: _273  and  _275
REMARK  122  A    between atoms: _275  and  _276
REMARK  123  A    between atoms: _275  and  _278
REMARK  124  A    between atoms: _278  and  _279
REMARK  125  A    between atoms: _282  and  _284
REMARK  126  A    between atoms: _284  and  _285
REMARK  127  A    between atoms: _288  and  _290
REMARK  128  A    between atoms: _290  and  _291
REMARK  129  A    between atoms: _290  and  _293
REMARK  130  A    between atoms: _293  and  _294
REMARK  131  A    between atoms: _294  and  _295
REMARK  132  A    between atoms: _295  and  _296
REMARK  133  A    between atoms: _296  and  _297
REMARK  134  A    between atoms: _301  and  _303
REMARK  135  A    between atoms: _303  and  _304
REMARK  136  A    between atoms: _303  and  _306
REMARK  137  A    between atoms: _306  and  _307
REMARK  138  A    between atoms: _310  and  _312
REMARK  139  A    between atoms: _312  and  _313
REMARK  140  A    between atoms: _315  and  _317
REMARK  141  A    between atoms: _317  and  _318
REMARK  142  A    between atoms: _317  and  _320
REMARK  143  A    between atoms: _323  and  _325
REMARK  144  A    between atoms: _325  and  _326
REMARK  145  A    between atoms: _328  and  _330
REMARK  146  A    between atoms: _330  and  _331
REMARK  147  A    between atoms: _330  and  _333
REMARK  148  A    between atoms: _333  and  _334
REMARK  149  A    between atoms: _340  and  _342
REMARK  150  A    between atoms: _342  and  _343
REMARK  151  A    between atoms: _342  and  _345
REMARK  152  A    between atoms: _345  and  _346
REMARK  153  A    between atoms: _351  and  _352
REMARK  154  A    between atoms: _354  and  _356
REMARK  155  A    between atoms: _356  and  _357
REMARK  156  A    between atoms: _356  and  _359
REMARK  157  A    between atoms: _359  and  _360
REMARK  158  A    between atoms: _365  and  _366
REMARK  159  A    between atoms: _368  and  _370
REMARK  160  A    between atoms: _370  and  _371
REMARK  161  A    between atoms: _370  and  _373
REMARK  162  A    between atoms: _376  and  _378
REMARK  163  A    between atoms: _378  and  _379
REMARK  164  A    between atoms: _378  and  _381
REMARK  165  A    between atoms: _381  and  _382
REMARK  166  A    between atoms: _385  and  _387
REMARK  167  A    between atoms: _387  and  _388
REMARK  168  A    between atoms: _387  and  _390
REMARK  169  A    between atoms: _393  and  _395
REMARK  170  A    between atoms: _395  and  _396
REMARK  171  A    between atoms: _395  and  _398
REMARK  172  A    between atoms: _398  and  _399
REMARK  173  A    between atoms: _402  and  _404
REMARK  174  A    between atoms: _404  and  _405
REMARK  175  A    between atoms: _404  and  _407
REMARK  176  A    between atoms: _407  and  _408
REMARK  177  A    between atoms: _411  and  _413
REMARK  178  A    between atoms: _413  and  _414
REMARK  179  A    between atoms: _413  and  _416
REMARK  180  A    between atoms: _416  and  _417
REMARK  181  A    between atoms: _417  and  _418
REMARK  182  A    between atoms: _418  and  _419
REMARK  183  A    between atoms: _419  and  _420
REMARK  184  A    between atoms: _424  and  _426
REMARK  185  A    between atoms: _426  and  _427
REMARK  186  A    between atoms: _426  and  _429
REMARK  187  A    between atoms: _429  and  _430
REMARK  188  A    between atoms: _435  and  _437
REMARK  189  A    between atoms: _437  and  _438
REMARK  190  A    between atoms: _441  and  _443
REMARK  191  A    between atoms: _443  and  _444
REMARK  192  A    between atoms: _443  and  _446
REMARK  193  A    between atoms: _446  and  _447
REMARK  194  A    between atoms: _457  and  _459
REMARK  195  A    between atoms: _459  and  _460
REMARK  196  A    between atoms: _459  and  _462
REMARK  197  A    between atoms: _462  and  _463
REMARK  198  A    between atoms: _463  and  _464
REMARK  199  A    between atoms: _467  and  _469
REMARK  200  A    between atoms: _469  and  _470
REMARK  201  A    between atoms: _469  and  _472
REMARK  202  A    between atoms: _472  and  _473
REMARK  203  A    between atoms: _475  and  _477
REMARK  204  A    between atoms: _477  and  _478
REMARK  205  A    between atoms: _477  and  _480
REMARK  206  A    between atoms: _480  and  _481
REMARK  207  A    between atoms: _487  and  _489
REMARK  208  A    between atoms: _489  and  _490
REMARK  209  A    between atoms: _489  and  _492
REMARK  210  A    between atoms: _492  and  _493
REMARK  211  A    between atoms: _496  and  _498
REMARK  212  A    between atoms: _498  and  _499
REMARK  213  A    between atoms: _498  and  _501
REMARK  214  A    between atoms: _504  and  _506
REMARK  215  A    between atoms: _506  and  _507
REMARK  216  A    between atoms: _509  and  _511
REMARK  217  A    between atoms: _511  and  _512
REMARK  218  A    between atoms: _511  and  _514
REMARK  219  A    between atoms: _514  and  _515
REMARK  220  A    between atoms: _518  and  _520
REMARK  221  A    between atoms: _520  and  _521
REMARK  222  A    between atoms: _520  and  _523
REMARK  223  A    between atoms: _523  and  _524
REMARK  224  A    between atoms: _524  and  _525
REMARK  225  A    between atoms: _525  and  _526
REMARK  226  A    between atoms: _526  and  _527
REMARK  227  A    between atoms: _531  and  _533
REMARK  228  A    between atoms: _533  and  _534
REMARK  229  A    between atoms: _533  and  _536
REMARK  230  A    between atoms: _539  and  _541
REMARK  231  A    between atoms: _541  and  _542
REMARK  232  A    between atoms: _541  and  _544
REMARK  233  A    between atoms: _544  and  _545
REMARK  234  A    between atoms: _550  and  _551
REMARK                            x       y       z     vdW  Elec       q    Type
REMARK                         _______ _______ _______ _____ _____    ______ ____
ROOT
ATOM      1  CB  PHE A   1      15.772  17.699  23.963  0.00  0.00    +0.051 C 
ENDROOT
BRANCH   1   2
ATOM      2  CG  PHE A   1      14.343  18.146  23.824  0.00  0.00    -0.020 A 
ATOM      3  CD2 PHE A   1      13.288  17.293  24.145  0.00  0.00    -0.004 A 
ATOM      4  CE2 PHE A   1      11.965  17.708  23.987  0.00  0.00    -0.000 A 
ATOM      5  CZ  PHE A   1      11.690  18.979  23.506  0.00  0.00    -0.000 A 
ATOM      6  CE1 PHE A   1      12.732  19.839  23.175  0.00  0.00    -0.000 A 
ATOM      7  CD1 PHE A   1      14.055  19.413  23.324  0.00  0.00    -0.004 A 
ENDBRANCH   1   2
BRANCH   1   8
ATOM      8  CA  PHE A   1      16.258  17.561  25.411  0.00  0.00    +0.137 C 
BRANCH   8   9
ATOM      9  N   PHE A   1      16.491  18.862  26.010  0.00  0.00    -0.239 NA
ATOM     10  H   PHE A   1      16.346  19.726  25.449  0.00  0.00    +0.142 HD
ENDBRANCH   8   9
BRANCH   8  11
ATOM     11  C   PHE A   1      17.589  16.833  25.387  0.00  0.00    +0.224 C 
ATOM     12  O   PHE A   1      18.638  17.460  25.266  0.00  0.00    -0.287 OA
ENDBRANCH   8  11
ENDBRANCH   1   8
TORSDOF 4
REMARK  Name = ../refined-set-2016/4cwn/4cwn_pocket.pdb
REMARK  234 active torsions:
REMARK  status: ('A' for Active; 'I' for Inactive)
REMARK    1  A    between atoms: _1  and  _3
REMARK    2  A    between atoms: _3  and  _4
REMARK    3  A    between atoms: _3  and  _6
REMARK    4  A    between atoms: _6  and  _7
REMARK    5  A    between atoms: _13  and  _15
REMARK    6  A    between atoms: _15  and  _16
REMARK    7  A    between atoms: _15  and  _18
REMARK    8  A    between atoms: _18  and  _19
REMARK    9  A    between atoms: _22  and  _24
REMARK   10  A    between atoms: _24  and  _25
REMARK   11  A    between atoms: _24  and  _27
REMARK   12  A    between atoms: _27  and  _28
REMARK   13  A    between atoms: _31  and  _33
REMARK   14  A    between atoms: _33  and  _34
REMARK   15  A    between atoms: _33  and  _36
REMARK   16  A    between atoms: _36  and  _37
REMARK   17  A    between atoms: _37  and  _38
REMARK   18  A    between atoms: _41  and  _43
REMARK   19  A    between atoms: _43  and  _44
REMARK   20  A    between atoms: _43  and  _46
REMARK   21  A    between atoms: _46  and  _47
REMARK   22  A    between atoms: _50  and  _52
REMARK   23  A    between atoms: _52  and  _53
REMARK   24  A    between atoms: _52  and  _55
REMARK   25  A    between atoms: _55  and  _56
REMARK   26  A    between atoms: _59  and  _61
REMARK   27  A    between atoms: _61  and  _62
REMARK   28  A    between atoms: _61  and  _64
REMARK   29  A    between atoms: _64  and  _65
REMARK   30  A    between atoms: _67  and  _69
REMARK   31  A    between atoms: _69  and  _70
REMARK   32  A    between atoms: _69  and  _72
REMARK   33  A    between atoms: _72  and  _73
REMARK   34  A    between atoms: _78  and  _80
REMARK   35  A    between atoms: _80  and  _81
REMARK   36  A    between atoms: _80  and  _83
REMARK   37  A    between atoms: _83  and  _84
REMARK   38  A    between atoms: _86  and  _88
REMARK   39  A    between atoms: _88  and  _89
REMARK   40  A    between atoms: _88  and  _91
REMARK   41  A    between atoms: _91  and  _92
REMARK   42  A    between atoms: _94  and  _96
REMARK   43  A    between atoms: _96  and  _97
REMARK   44  A    between atoms: _96  and  _99
REMARK   45  A    between atoms: _99  and  _100
REMARK   46  A    between atoms: _103  and  _105
REMARK   47  A    between atoms: _105  and  _106
REMARK   48  A    between atoms: _109  and  _111
REMARK   49  A    between atoms: _111  and  _112
REMARK   50  A    between atoms: _111  and  _114
REMARK   51  A    between atoms: _114  and  _115
REMARK   52  A    between atoms: _118  and  _120
REMARK   53  A    between atoms: _120  and  _121
REMARK   54  A    between atoms: _120  and  _123
REMARK   55  A    between atoms: _123  and  _124
REMARK   56  A    between atoms: _124  and  _125
REMARK   57  A    between atoms: _125  and  _126
REMARK   58  A    between atoms: _126  and  _127
REMARK   59  A    between atoms: _131  and  _133
REMARK   60  A    between atoms: _133  and  _134
REMARK   61  A    between atoms: _133  and  _136
REMARK   62  A    between atoms: _136  and  _137
REMARK   63  A    between atoms: _140  and  _142
REMARK   64  A    between atoms: _142  and  _143
REMARK   65  A    between atoms: _142  and  _145
REMARK   66  A    between atoms: _145  and  _146
REMARK   67  A    between atoms: _149  and  _151
REMARK   68  A    between atoms: _151  and  _152
REMARK   69  A    between atoms: _151  and  _154
REMARK   70  A    between atoms: _157  and  _159
REMARK   71  A    between atoms: _159  and  _160
REMARK   72  A    between atoms: _159  and  _162
REMARK   73  A    between atoms: _162  and  _163
REMARK   74  A    between atoms: _166  and  _168
REMARK   75  A    between atoms: _168  and  _169
REMARK   76  A    between atoms: _168  and  _171
REMARK   77  A    between atoms: _171  and  _172
REMARK   78  A    between atoms: _175  and  _177
REMARK   79  A    between atoms: _177  and  _178
REMARK   80  A    between atoms: _180  and  _182
REMARK   81  A    between atoms: _182  and  _183
REMARK   82  A    between atoms: _182  and  _185
REMARK   83  A    between atoms: _185  and  _186
REMARK   84  A    between atoms: _189  and  _191
REMARK   85  A    between atoms: _191  and  _192
REMARK   86  A    between atoms: _194  and  _196
REMARK   87  A    between atoms: _196  and  _197
REMARK   88  A    between atoms: _196  and  _199
REMARK   89  A    between atoms: _199  and  _200
REMARK   90  A    between atoms: _200  and  _201
REMARK   91  A    between atoms: _203  and  _205
REMARK   92  A    between atoms: _205  and  _206
REMARK   93  A    between atoms: _205  and  _208
REMARK   94  A    between atoms: _208  and  _209
REMARK   95  A    between atoms: _212  and  _214
REMARK   96  A    between atoms: _214  and  _215
REMARK   97  A    between atoms: _214  and  _217
REMARK   98  A    between atoms: _217  and  _218
REMARK   99  A    between atoms: _221  and  _223
REMARK  100  A    between atoms: _223  and  _224
REMARK  101  A    between atoms: _223  and  _226
REMARK  102  A    between atoms: _226  and  _227
REMARK  103  A    between atoms: _230  and  _232
REMARK  104  A    between atoms: _232  and  _233
REMARK  105  A    between atoms: _232  and  _235
REMARK  106  A    between atoms: _235  and  _236
REMARK  107  A    between atoms: _239  and  _241
REMARK  108  A    between atoms: _241  and  _242
REMARK  109  A    between atoms: _241  and  _244
REMARK  110  A    between atoms: _244  and  _245
REMARK  111  A    between atoms: _250  and  _252
REMARK  112  A    between atoms: _252  and  _253
REMARK  113  A    between atoms: _252  and  _255
REMARK  114  A    between atoms: _255  and  _256
REMARK  115  A    between atoms: _259  and  _261
REMARK  116  A    between atoms: _261  and  _262
REMARK  117  A    between atoms: _264  and  _266
REMARK  118  A    between atoms: _266  and  _267
REMARK  119  A    between atoms: _266  and  _269
REMARK  120  A    between atoms: _269  and  _270
REMARK  121  A    between atoms: _273  and  _275
REMARK  122  A    between atoms: _275  and  _276
REMARK  123  A    between atoms: _275  and  _278
REMARK  124  A    between atoms: _278  and  _279
REMARK  125  A    between atoms: _282  and  _284
REMARK  126  A    between atoms: _284  and  _285
REMARK  127  A    between atoms: _288  and  _290
REMARK  128  A    between atoms: _290  and  _291
REMARK  129  A    between atoms: _290  and  _293
REMARK  130  A    between atoms: _293  and  _294
REMARK  131  A    between atoms: _294  and  _295
REMARK  132  A    between atoms: _295  and  _296
REMARK  133  A    between atoms: _296  and  _297
REMARK  134  A    between atoms: _301  and  _303
REMARK  135  A    between atoms: _303  and  _304
REMARK  136  A    between atoms: _303  and  _306
REMARK  137  A    between atoms: _306  and  _307
REMARK  138  A    between atoms: _310  and  _312
REMARK  139  A    between atoms: _312  and  _313
REMARK  140  A    between atoms: _315  and  _317
REMARK  141  A    between atoms: _317  and  _318
REMARK  142  A    between atoms: _317  and  _320
REMARK  143  A    between atoms: _323  and  _325
REMARK  144  A    between atoms: _325  and  _326
REMARK  145  A    between atoms: _328  and  _330
REMARK  146  A    between atoms: _330  and  _331
REMARK  147  A    between atoms: _330  and  _333
REMARK  148  A    between atoms: _333  and  _334
REMARK  149  A    between atoms: _340  and  _342
REMARK  150  A    between atoms: _342  and  _343
REMARK  151  A    between atoms: _342  and  _345
REMARK  152  A    between atoms: _345  and  _346
REMARK  153  A    between atoms: _351  and  _352
REMARK  154  A    between atoms: _354  and  _356
REMARK  155  A    between atoms: _356  and  _357
REMARK  156  A    between atoms: _356  and  _359
REMARK  157  A    between atoms: _359  and  _360
REMARK  158  A    between atoms: _365  and  _366
REMARK  159  A    between atoms: _368  and  _370
REMARK  160  A    between atoms: _370  and  _371
REMARK  161  A    between atoms: _370  and  _373
REMARK  162  A    between atoms: _376  and  _378
REMARK  163  A    between atoms: _378  and  _379
REMARK  164  A    between atoms: _378  and  _381
REMARK  165  A    between atoms: _381  and  _382
REMARK  166  A    between atoms: _385  and  _387
REMARK  167  A    between atoms: _387  and  _388
REMARK  168  A    between atoms: _387  and  _390
REMARK  169  A    between atoms: _393  and  _395
REMARK  170  A    between atoms: _395  and  _396
REMARK  171  A    between atoms: _395  and  _398
REMARK  172  A    between atoms: _398  and  _399
REMARK  173  A    between atoms: _402  and  _404
REMARK  174  A    between atoms: _404  and  _405
REMARK  175  A    between atoms: _404  and  _407
REMARK  176  A    between atoms: _407  and  _408
REMARK  177  A    between atoms: _411  and  _413
REMARK  178  A    between atoms: _413  and  _414
REMARK  179  A    between atoms: _413  and  _416
REMARK  180  A    between atoms: _416  and  _417
REMARK  181  A    between atoms: _417  and  _418
REMARK  182  A    between atoms: _418  and  _419
REMARK  183  A    between atoms: _419  and  _420
REMARK  184  A    between atoms: _424  and  _426
REMARK  185  A    between atoms: _426  and  _427
REMARK  186  A    between atoms: _426  and  _429
REMARK  187  A    between atoms: _429  and  _430
REMARK  188  A    between atoms: _435  and  _437
REMARK  189  A    between atoms: _437  and  _438
REMARK  190  A    between atoms: _441  and  _443
REMARK  191  A    between atoms: _443  and  _444
REMARK  192  A    between atoms: _443  and  _446
REMARK  193  A    between atoms: _446  and  _447
REMARK  194  A    between atoms: _457  and  _459
REMARK  195  A    between atoms: _459  and  _460
REMARK  196  A    between atoms: _459  and  _462
REMARK  197  A    between atoms: _462  and  _463
REMARK  198  A    between atoms: _463  and  _464
REMARK  199  A    between atoms: _467  and  _469
REMARK  200  A    between atoms: _469  and  _470
REMARK  201  A    between atoms: _469  and  _472
REMARK  202  A    between atoms: _472  and  _473
REMARK  203  A    between atoms: _475  and  _477
REMARK  204  A    between atoms: _477  and  _478
REMARK  205  A    between atoms: _477  and  _480
REMARK  206  A    between atoms: _480  and  _481
REMARK  207  A    between atoms: _487  and  _489
REMARK  208  A    between atoms: _489  and  _490
REMARK  209  A    between atoms: _489  and  _492
REMARK  210  A    between atoms: _492  and  _493
REMARK  211  A    between atoms: _496  and  _498
REMARK  212  A    between atoms: _498  and  _499
REMARK  213  A    between atoms: _498  and  _501
REMARK  214  A    between atoms: _504  and  _506
REMARK  215  A    between atoms: _506  and  _507
REMARK  216  A    between atoms: _509  and  _511
REMARK  217  A    between atoms: _511  and  _512
REMARK  218  A    between atoms: _511  and  _514
REMARK  219  A    between atoms: _514  and  _515
REMARK  220  A    between atoms: _518  and  _520
REMARK  221  A    between atoms: _520  and  _521
REMARK  222  A    between atoms: _520  and  _523
REMARK  223  A    between atoms: _523  and  _524
REMARK  224  A    between atoms: _524  and  _525
REMARK  225  A    between atoms: _525  and  _526
REMARK  226  A    between atoms: _526  and  _527
REMARK  227  A    between atoms: _531  and  _533
REMARK  228  A    between atoms: _533  and  _534
REMARK  229  A    between atoms: _533  and  _536
REMARK  230  A    between atoms: _539  and  _541
REMARK  231  A    between atoms: _541  and  _542
REMARK  232  A    between atoms: _541  and  _544
REMARK  233  A    between atoms: _544  and  _545
REMARK  234  A    between atoms: _550  and  _551
REMARK                            x       y       z     vdW  Elec       q    Type
REMARK                         _______ _______ _______ _____ _____    ______ ____
ROOT
ATOM      1  CA  ILE A   1      15.875  13.880  20.604  0.00  0.00    +0.133 C 
ENDROOT
BRANCH   1   2
ATOM      2  N   ILE A   1      17.213  13.319  20.840  0.00  0.00    -0.239 NA
ATOM      3  H   ILE A   1      17.580  13.275  21.812  0.00  0.00    +0.142 HD
ENDBRANCH   1   2
BRANCH   1   4
ATOM      4  CB  ILE A   1      15.058  14.005  21.918  0.00  0.00    +0.023 C 
ATOM      5  CG2 ILE A   1      13.706  14.670  21.655  0.00  0.00    +0.002 C 
BRANCH   4   6
ATOM      6  CG1 ILE A   1      14.926  12.646  22.631  0.00  0.00    +0.002 C 
ATOM      7  CD1 ILE A   1      14.385  11.507  21.795  0.00  0.00    +0.000 C 
ENDBRANCH   4   6
ENDBRANCH   1   4
BRANCH   1   8
ATOM      8  C   ILE A   1      15.945  15.237  19.908  0.00  0.00    +0.224 C 
ATOM      9  O   ILE A   1      15.174  15.506  18.983  0.00  0.00    -0.287 OA
ENDBRANCH   1   8
TORSDOF 4
REMARK  Name = ../refined-set-2016/4cwn/4cwn_pocket.pdb
REMARK  234 active torsions:
REMARK  status: ('A' for Active; 'I' for Inactive)
REMARK    1  A    between atoms: _1  and  _3
REMARK    2  A    between atoms: _3  and  _4
REMARK    3  A    between atoms: _3  and  _6
REMARK    4  A    between atoms: _6  and  _7
REMARK    5  A    between atoms: _13  and  _15
REMARK    6  A    between atoms: _15  and  _16
REMARK    7  A    between atoms: _15  and  _18
REMARK    8  A    between atoms: _18  and  _19
REMARK    9  A    between atoms: _22  and  _24
REMARK   10  A    between atoms: _24  and  _25
REMARK   11  A    between atoms: _24  and  _27
REMARK   12  A    between atoms: _27  and  _28
REMARK   13  A    between atoms: _31  and  _33
REMARK   14  A    between atoms: _33  and  _34
REMARK   15  A    between atoms: _33  and  _36
REMARK   16  A    between atoms: _36  and  _37
REMARK   17  A    between atoms: _37  and  _38
REMARK   18  A    between atoms: _41  and  _43
REMARK   19  A    between atoms: _43  and  _44
REMARK   20  A    between atoms: _43  and  _46
REMARK   21  A    between atoms: _46  and  _47
REMARK   22  A    between atoms: _50  and  _52
REMARK   23  A    between atoms: _52  and  _53
REMARK   24  A    between atoms: _52  and  _55
REMARK   25  A    between atoms: _55  and  _56
REMARK   26  A    between atoms: _59  and  _61
REMARK   27  A    between atoms: _61  and  _62
REMARK   28  A    between atoms: _61  and  _64
REMARK   29  A    between atoms: _64  and  _65
REMARK   30  A    between atoms: _67  and  _69
REMARK   31  A    between atoms: _69  and  _70
REMARK   32  A    between atoms: _69  and  _72
REMARK   33  A    between atoms: _72  and  _73
REMARK   34  A    between atoms: _78  and  _80
REMARK   35  A    between atoms: _80  and  _81
REMARK   36  A    between atoms: _80  and  _83
REMARK   37  A    between atoms: _83  and  _84
REMARK   38  A    between atoms: _86  and  _88
REMARK   39  A    between atoms: _88  and  _89
REMARK   40  A    between atoms: _88  and  _91
REMARK   41  A    between atoms: _91  and  _92
REMARK   42  A    between atoms: _94  and  _96
REMARK   43  A    between atoms: _96  and  _97
REMARK   44  A    between atoms: _96  and  _99
REMARK   45  A    between atoms: _99  and  _100
REMARK   46  A    between atoms: _103  and  _105
REMARK   47  A    between atoms: _105  and  _106
REMARK   48  A    between atoms: _109  and  _111
REMARK   49  A    between atoms: _111  and  _112
REMARK   50  A    between atoms: _111  and  _114
REMARK   51  A    between atoms: _114  and  _115
REMARK   52  A    between atoms: _118  and  _120
REMARK   53  A    between atoms: _120  and  _121
REMARK   54  A    between atoms: _120  and  _123
REMARK   55  A    between atoms: _123  and  _124
REMARK   56  A    between atoms: _124  and  _125
REMARK   57  A    between atoms: _125  and  _126
REMARK   58  A    between atoms: _126  and  _127
REMARK   59  A    between atoms: _131  and  _133
REMARK   60  A    between atoms: _133  and  _134
REMARK   61  A    between atoms: _133  and  _136
REMARK   62  A    between atoms: _136  and  _137
REMARK   63  A    between atoms: _140  and  _142
REMARK   64  A    between atoms: _142  and  _143
REMARK   65  A    between atoms: _142  and  _145
REMARK   66  A    between atoms: _145  and  _146
REMARK   67  A    between atoms: _149  and  _151
REMARK   68  A    between atoms: _151  and  _152
REMARK   69  A    between atoms: _151  and  _154
REMARK   70  A    between atoms: _157  and  _159
REMARK   71  A    between atoms: _159  and  _160
REMARK   72  A    between atoms: _159  and  _162
REMARK   73  A    between atoms: _162  and  _163
REMARK   74  A    between atoms: _166  and  _168
REMARK   75  A    between atoms: _168  and  _169
REMARK   76  A    between atoms: _168  and  _171
REMARK   77  A    between atoms: _171  and  _172
REMARK   78  A    between atoms: _175  and  _177
REMARK   79  A    between atoms: _177  and  _178
REMARK   80  A    between atoms: _180  and  _182
REMARK   81  A    between atoms: _182  and  _183
REMARK   82  A    between atoms: _182  and  _185
REMARK   83  A    between atoms: _185  and  _186
REMARK   84  A    between atoms: _189  and  _191
REMARK   85  A    between atoms: _191  and  _192
REMARK   86  A    between atoms: _194  and  _196
REMARK   87  A    between atoms: _196  and  _197
REMARK   88  A    between atoms: _196  and  _199
REMARK   89  A    between atoms: _199  and  _200
REMARK   90  A    between atoms: _200  and  _201
REMARK   91  A    between atoms: _203  and  _205
REMARK   92  A    between atoms: _205  and  _206
REMARK   93  A    between atoms: _205  and  _208
REMARK   94  A    between atoms: _208  and  _209
REMARK   95  A    between atoms: _212  and  _214
REMARK   96  A    between atoms: _214  and  _215
REMARK   97  A    between atoms: _214  and  _217
REMARK   98  A    between atoms: _217  and  _218
REMARK   99  A    between atoms: _221  and  _223
REMARK  100  A    between atoms: _223  and  _224
REMARK  101  A    between atoms: _223  and  _226
REMARK  102  A    between atoms: _226  and  _227
REMARK  103  A    between atoms: _230  and  _232
REMARK  104  A    between atoms: _232  and  _233
REMARK  105  A    between atoms: _232  and  _235
REMARK  106  A    between atoms: _235  and  _236
REMARK  107  A    between atoms: _239  and  _241
REMARK  108  A    between atoms: _241  and  _242
REMARK  109  A    between atoms: _241  and  _244
REMARK  110  A    between atoms: _244  and  _245
REMARK  111  A    between atoms: _250  and  _252
REMARK  112  A    between atoms: _252  and  _253
REMARK  113  A    between atoms: _252  and  _255
REMARK  114  A    between atoms: _255  and  _256
REMARK  115  A    between atoms: _259  and  _261
REMARK  116  A    between atoms: _261  and  _262
REMARK  117  A    between atoms: _264  and  _266
REMARK  118  A    between atoms: _266  and  _267
REMARK  119  A    between atoms: _266  and  _269
REMARK  120  A    between atoms: _269  and  _270
REMARK  121  A    between atoms: _273  and  _275
REMARK  122  A    between atoms: _275  and  _276
REMARK  123  A    between atoms: _275  and  _278
REMARK  124  A    between atoms: _278  and  _279
REMARK  125  A    between atoms: _282  and  _284
REMARK  126  A    between atoms: _284  and  _285
REMARK  127  A    between atoms: _288  and  _290
REMARK  128  A    between atoms: _290  and  _291
REMARK  129  A    between atoms: _290  and  _293
REMARK  130  A    between atoms: _293  and  _294
REMARK  131  A    between atoms: _294  and  _295
REMARK  132  A    between atoms: _295  and  _296
REMARK  133  A    between atoms: _296  and  _297
REMARK  134  A    between atoms: _301  and  _303
REMARK  135  A    between atoms: _303  and  _304
REMARK  136  A    between atoms: _303  and  _306
REMARK  137  A    between atoms: _306  and  _307
REMARK  138  A    between atoms: _310  and  _312
REMARK  139  A    between atoms: _312  and  _313
REMARK  140  A    between atoms: _315  and  _317
REMARK  141  A    between atoms: _317  and  _318
REMARK  142  A    between atoms: _317  and  _320
REMARK  143  A    between atoms: _323  and  _325
REMARK  144  A    between atoms: _325  and  _326
REMARK  145  A    between atoms: _328  and  _330
REMARK  146  A    between atoms: _330  and  _331
REMARK  147  A    between atoms: _330  and  _333
REMARK  148  A    between atoms: _333  and  _334
REMARK  149  A    between atoms: _340  and  _342
REMARK  150  A    between atoms: _342  and  _343
REMARK  151  A    between atoms: _342  and  _345
REMARK  152  A    between atoms: _345  and  _346
REMARK  153  A    between atoms: _351  and  _352
REMARK  154  A    between atoms: _354  and  _356
REMARK  155  A    between atoms: _356  and  _357
REMARK  156  A    between atoms: _356  and  _359
REMARK  157  A    between atoms: _359  and  _360
REMARK  158  A    between atoms: _365  and  _366
REMARK  159  A    between atoms: _368  and  _370
REMARK  160  A    between atoms: _370  and  _371
REMARK  161  A    between atoms: _370  and  _373
REMARK  162  A    between atoms: _376  and  _378
REMARK  163  A    between atoms: _378  and  _379
REMARK  164  A    between atoms: _378  and  _381
REMARK  165  A    between atoms: _381  and  _382
REMARK  166  A    between atoms: _385  and  _387
REMARK  167  A    between atoms: _387  and  _388
REMARK  168  A    between atoms: _387  and  _390
REMARK  169  A    between atoms: _393  and  _395
REMARK  170  A    between atoms: _395  and  _396
REMARK  171  A    between atoms: _395  and  _398
REMARK  172  A    between atoms: _398  and  _399
REMARK  173  A    between atoms: _402  and  _404
REMARK  174  A    between atoms: _404  and  _405
REMARK  175  A    between atoms: _404  and  _407
REMARK  176  A    between atoms: _407  and  _408
REMARK  177  A    between atoms: _411  and  _413
REMARK  178  A    between atoms: _413  and  _414
REMARK  179  A    between atoms: _413  and  _416
REMARK  180  A    between atoms: _416  and  _417
REMARK  181  A    between atoms: _417  and  _418
REMARK  182  A    between atoms: _418  and  _419
REMARK  183  A    between atoms: _419  and  _420
REMARK  184  A    between atoms: _424  and  _426
REMARK  185  A    between atoms: _426  and  _427
REMARK  186  A    between atoms: _426  and  _429
REMARK  187  A    between atoms: _429  and  _430
REMARK  188  A    between atoms: _435  and  _437
REMARK  189  A    between atoms: _437  and  _438
REMARK  190  A    between atoms: _441  and  _443
REMARK  191  A    between atoms: _443  and  _444
REMARK  192  A    between atoms: _443  and  _446
REMARK  193  A    between atoms: _446  and  _447
REMARK  194  A    between atoms: _457  and  _459
REMARK  195  A    between atoms: _459  and  _460
REMARK  196  A    between atoms: _459  and  _462
REMARK  197  A    between atoms: _462  and  _463
REMARK  198  A    between atoms: _463  and  _464
REMARK  199  A    between atoms: _467  and  _469
REMARK  200  A    between atoms: _469  and  _470
REMARK  201  A    between atoms: _469  and  _472
REMARK  202  A    between atoms: _472  and  _473
REMARK  203  A    between atoms: _475  and  _477
REMARK  204  A    between atoms: _477  and  _478
REMARK  205  A    between atoms: _477  and  _480
REMARK  206  A    between atoms: _480  and  _481
REMARK  207  A    between atoms: _487  and  _489
REMARK  208  A    between atoms: _489  and  _490
REMARK  209  A    between atoms: _489  and  _492
REMARK  210  A    between atoms: _492  and  _493
REMARK  211  A    between atoms: _496  and  _498
REMARK  212  A    between atoms: _498  and  _499
REMARK  213  A    between atoms: _498  and  _501
REMARK  214  A    between atoms: _504  and  _506
REMARK  215  A    between atoms: _506  and  _507
REMARK  216  A    between atoms: _509  and  _511
REMARK  217  A    between atoms: _511  and  _512
REMARK  218  A    between atoms: _511  and  _514
REMARK  219  A    between atoms: _514  and  _515
REMARK  220  A    between atoms: _518  and  _520
REMARK  221  A    between atoms: _520  and  _521
REMARK  222  A    between atoms: _520  and  _523
REMARK  223  A    between atoms: _523  and  _524
REMARK  224  A    between atoms: _524  and  _525
REMARK  225  A    between atoms: _525  and  _526
REMARK  226  A    between atoms: _526  and  _527
REMARK  227  A    between atoms: _531  and  _533
REMARK  228  A    between atoms: _533  and  _534
REMARK  229  A    between atoms: _533  and  _536
REMARK  230  A    between atoms: _539  and  _541
REMARK  231  A    between atoms: _541  and  _542
REMARK  232  A    between atoms: _541  and  _544
REMARK  233  A    between atoms: _544  and  _545
REMARK  234  A    between atoms: _550  and  _551
REMARK                            x       y       z     vdW  Elec       q    Type
REMARK                         _______ _______ _______ _____ _____    ______ ____
ROOT
ATOM      1  CA  LEU A   1      15.379  14.062  15.683  0.00  0.00    +0.133 C 
ENDROOT
BRANCH   1   2
ATOM      2  N   LEU A   1      16.623  14.507  16.337  0.00  0.00    -0.239 NA
ATOM      3  H   LEU A   1      16.856  14.143  17.283  0.00  0.00    +0.142 HD
ENDBRANCH   1   2
BRANCH   1   4
ATOM      4  C   LEU A   1      14.470  15.236  15.356  0.00  0.00    +0.224 C 
ATOM      5  O   LEU A   1      13.954  15.342  14.241  0.00  0.00    -0.287 OA
ENDBRANCH   1   4
BRANCH   1   6
ATOM      6  CB  LEU A   1      14.630  13.045  16.554  0.00  0.00    +0.025 C 
BRANCH   6   7
ATOM      7  CG  LEU A   1      13.225  12.686  16.047  0.00  0.00    +0.002 C 
ATOM      8  CD2 LEU A   1      12.452  11.894  17.099  0.00  0.00    +0.000 C 
ATOM      9  CD1 LEU A   1      13.293  11.946  14.714  0.00  0.00    +0.000 C 
ENDBRANCH   6   7
ENDBRANCH   1   6
TORSDOF 4
REMARK  Name = ../refined-set-2016/4cwn/4cwn_pocket.pdb
REMARK  234 active torsions:
REMARK  status: ('A' for Active; 'I' for Inactive)
REMARK    1  A    between atoms: _1  and  _3
REMARK    2  A    between atoms: _3  and  _4
REMARK    3  A    between atoms: _3  and  _6
REMARK    4  A    between atoms: _6  and  _7
REMARK    5  A    between atoms: _13  and  _15
REMARK    6  A    between atoms: _15  and  _16
REMARK    7  A    between atoms: _15  and  _18
REMARK    8  A    between atoms: _18  and  _19
REMARK    9  A    between atoms: _22  and  _24
REMARK   10  A    between atoms: _24  and  _25
REMARK   11  A    between atoms: _24  and  _27
REMARK   12  A    between atoms: _27  and  _28
REMARK   13  A    between atoms: _31  and  _33
REMARK   14  A    between atoms: _33  and  _34
REMARK   15  A    between atoms: _33  and  _36
REMARK   16  A    between atoms: _36  and  _37
REMARK   17  A    between atoms: _37  and  _38
REMARK   18  A    between atoms: _41  and  _43
REMARK   19  A    between atoms: _43  and  _44
REMARK   20  A    between atoms: _43  and  _46
REMARK   21  A    between atoms: _46  and  _47
REMARK   22  A    between atoms: _50  and  _52
REMARK   23  A    between atoms: _52  and  _53
REMARK   24  A    between atoms: _52  and  _55
REMARK   25  A    between atoms: _55  and  _56
REMARK   26  A    between atoms: _59  and  _61
REMARK   27  A    between atoms: _61  and  _62
REMARK   28  A    between atoms: _61  and  _64
REMARK   29  A    between atoms: _64  and  _65
REMARK   30  A    between atoms: _67  and  _69
REMARK   31  A    between atoms: _69  and  _70
REMARK   32  A    between atoms: _69  and  _72
REMARK   33  A    between atoms: _72  and  _73
REMARK   34  A    between atoms: _78  and  _80
REMARK   35  A    between atoms: _80  and  _81
REMARK   36  A    between atoms: _80  and  _83
REMARK   37  A    between atoms: _83  and  _84
REMARK   38  A    between atoms: _86  and  _88
REMARK   39  A    between atoms: _88  and  _89
REMARK   40  A    between atoms: _88  and  _91
REMARK   41  A    between atoms: _91  and  _92
REMARK   42  A    between atoms: _94  and  _96
REMARK   43  A    between atoms: _96  and  _97
REMARK   44  A    between atoms: _96  and  _99
REMARK   45  A    between atoms: _99  and  _100
REMARK   46  A    between atoms: _103  and  _105
REMARK   47  A    between atoms: _105  and  _106
REMARK   48  A    between atoms: _109  and  _111
REMARK   49  A    between atoms: _111  and  _112
REMARK   50  A    between atoms: _111  and  _114
REMARK   51  A    between atoms: _114  and  _115
REMARK   52  A    between atoms: _118  and  _120
REMARK   53  A    between atoms: _120  and  _121
REMARK   54  A    between atoms: _120  and  _123
REMARK   55  A    between atoms: _123  and  _124
REMARK   56  A    between atoms: _124  and  _125
REMARK   57  A    between atoms: _125  and  _126
REMARK   58  A    between atoms: _126  and  _127
REMARK   59  A    between atoms: _131  and  _133
REMARK   60  A    between atoms: _133  and  _134
REMARK   61  A    between atoms: _133  and  _136
REMARK   62  A    between atoms: _136  and  _137
REMARK   63  A    between atoms: _140  and  _142
REMARK   64  A    between atoms: _142  and  _143
REMARK   65  A    between atoms: _142  and  _145
REMARK   66  A    between atoms: _145  and  _146
REMARK   67  A    between atoms: _149  and  _151
REMARK   68  A    between atoms: _151  and  _152
REMARK   69  A    between atoms: _151  and  _154
REMARK   70  A    between atoms: _157  and  _159
REMARK   71  A    between atoms: _159  and  _160
REMARK   72  A    between atoms: _159  and  _162
REMARK   73  A    between atoms: _162  and  _163
REMARK   74  A    between atoms: _166  and  _168
REMARK   75  A    between atoms: _168  and  _169
REMARK   76  A    between atoms: _168  and  _171
REMARK   77  A    between atoms: _171  and  _172
REMARK   78  A    between atoms: _175  and  _177
REMARK   79  A    between atoms: _177  and  _178
REMARK   80  A    between atoms: _180  and  _182
REMARK   81  A    between atoms: _182  and  _183
REMARK   82  A    between atoms: _182  and  _185
REMARK   83  A    between atoms: _185  and  _186
REMARK   84  A    between atoms: _189  and  _191
REMARK   85  A    between atoms: _191  and  _192
REMARK   86  A    between atoms: _194  and  _196
REMARK   87  A    between atoms: _196  and  _197
REMARK   88  A    between atoms: _196  and  _199
REMARK   89  A    between atoms: _199  and  _200
REMARK   90  A    between atoms: _200  and  _201
REMARK   91  A    between atoms: _203  and  _205
REMARK   92  A    between atoms: _205  and  _206
REMARK   93  A    between atoms: _205  and  _208
REMARK   94  A    between atoms: _208  and  _209
REMARK   95  A    between atoms: _212  and  _214
REMARK   96  A    between atoms: _214  and  _215
REMARK   97  A    between atoms: _214  and  _217
REMARK   98  A    between atoms: _217  and  _218
REMARK   99  A    between atoms: _221  and  _223
REMARK  100  A    between atoms: _223  and  _224
REMARK  101  A    between atoms: _223  and  _226
REMARK  102  A    between atoms: _226  and  _227
REMARK  103  A    between atoms: _230  and  _232
REMARK  104  A    between atoms: _232  and  _233
REMARK  105  A    between atoms: _232  and  _235
REMARK  106  A    between atoms: _235  and  _236
REMARK  107  A    between atoms: _239  and  _241
REMARK  108  A    between atoms: _241  and  _242
REMARK  109  A    between atoms: _241  and  _244
REMARK  110  A    between atoms: _244  and  _245
REMARK  111  A    between atoms: _250  and  _252
REMARK  112  A    between atoms: _252  and  _253
REMARK  113  A    between atoms: _252  and  _255
REMARK  114  A    between atoms: _255  and  _256
REMARK  115  A    between atoms: _259  and  _261
REMARK  116  A    between atoms: _261  and  _262
REMARK  117  A    between atoms: _264  and  _266
REMARK  118  A    between atoms: _266  and  _267
REMARK  119  A    between atoms: _266  and  _269
REMARK  120  A    between atoms: _269  and  _270
REMARK  121  A    between atoms: _273  and  _275
REMARK  122  A    between atoms: _275  and  _276
REMARK  123  A    between atoms: _275  and  _278
REMARK  124  A    between atoms: _278  and  _279
REMARK  125  A    between atoms: _282  and  _284
REMARK  126  A    between atoms: _284  and  _285
REMARK  127  A    between atoms: _288  and  _290
REMARK  128  A    between atoms: _290  and  _291
REMARK  129  A    between atoms: _290  and  _293
REMARK  130  A    between atoms: _293  and  _294
REMARK  131  A    between atoms: _294  and  _295
REMARK  132  A    between atoms: _295  and  _296
REMARK  133  A    between atoms: _296  and  _297
REMARK  134  A    between atoms: _301  and  _303
REMARK  135  A    between atoms: _303  and  _304
REMARK  136  A    between atoms: _303  and  _306
REMARK  137  A    between atoms: _306  and  _307
REMARK  138  A    between atoms: _310  and  _312
REMARK  139  A    between atoms: _312  and  _313
REMARK  140  A    between atoms: _315  and  _317
REMARK  141  A    between atoms: _317  and  _318
REMARK  142  A    between atoms: _317  and  _320
REMARK  143  A    between atoms: _323  and  _325
REMARK  144  A    between atoms: _325  and  _326
REMARK  145  A    between atoms: _328  and  _330
REMARK  146  A    between atoms: _330  and  _331
REMARK  147  A    between atoms: _330  and  _333
REMARK  148  A    between atoms: _333  and  _334
REMARK  149  A    between atoms: _340  and  _342
REMARK  150  A    between atoms: _342  and  _343
REMARK  151  A    between atoms: _342  and  _345
REMARK  152  A    between atoms: _345  and  _346
REMARK  153  A    between atoms: _351  and  _352
REMARK  154  A    between atoms: _354  and  _356
REMARK  155  A    between atoms: _356  and  _357
REMARK  156  A    between atoms: _356  and  _359
REMARK  157  A    between atoms: _359  and  _360
REMARK  158  A    between atoms: _365  and  _366
REMARK  159  A    between atoms: _368  and  _370
REMARK  160  A    between atoms: _370  and  _371
REMARK  161  A    between atoms: _370  and  _373
REMARK  162  A    between atoms: _376  and  _378
REMARK  163  A    between atoms: _378  and  _379
REMARK  164  A    between atoms: _378  and  _381
REMARK  165  A    between atoms: _381  and  _382
REMARK  166  A    between atoms: _385  and  _387
REMARK  167  A    between atoms: _387  and  _388
REMARK  168  A    between atoms: _387  and  _390
REMARK  169  A    between atoms: _393  and  _395
REMARK  170  A    between atoms: _395  and  _396
REMARK  171  A    between atoms: _395  and  _398
REMARK  172  A    between atoms: _398  and  _399
REMARK  173  A    between atoms: _402  and  _404
REMARK  174  A    between atoms: _404  and  _405
REMARK  175  A    between atoms: _404  and  _407
REMARK  176  A    between atoms: _407  and  _408
REMARK  177  A    between atoms: _411  and  _413
REMARK  178  A    between atoms: _413  and  _414
REMARK  179  A    between atoms: _413  and  _416
REMARK  180  A    between atoms: _416  and  _417
REMARK  181  A    between atoms: _417  and  _418
REMARK  182  A    between atoms: _418  and  _419
REMARK  183  A    between atoms: _419  and  _420
REMARK  184  A    between atoms: _424  and  _426
REMARK  185  A    between atoms: _426  and  _427
REMARK  186  A    between atoms: _426  and  _429
REMARK  187  A    between atoms: _429  and  _430
REMARK  188  A    between atoms: _435  and  _437
REMARK  189  A    between atoms: _437  and  _438
REMARK  190  A    between atoms: _441  and  _443
REMARK  191  A    between atoms: _443  and  _444
REMARK  192  A    between atoms: _443  and  _446
REMARK  193  A    between atoms: _446  and  _447
REMARK  194  A    between atoms: _457  and  _459
REMARK  195  A    between atoms: _459  and  _460
REMARK  196  A    between atoms: _459  and  _462
REMARK  197  A    between atoms: _462  and  _463
REMARK  198  A    between atoms: _463  and  _464
REMARK  199  A    between atoms: _467  and  _469
REMARK  200  A    between atoms: _469  and  _470
REMARK  201  A    between atoms: _469  and  _472
REMARK  202  A    between atoms: _472  and  _473
REMARK  203  A    between atoms: _475  and  _477
REMARK  204  A    between atoms: _477  and  _478
REMARK  205  A    between atoms: _477  and  _480
REMARK  206  A    between atoms: _480  and  _481
REMARK  207  A    between atoms: _487  and  _489
REMARK  208  A    between atoms: _489  and  _490
REMARK  209  A    between atoms: _489  and  _492
REMARK  210  A    between atoms: _492  and  _493
REMARK  211  A    between atoms: _496  and  _498
REMARK  212  A    between atoms: _498  and  _499
REMARK  213  A    between atoms: _498  and  _501
REMARK  214  A    between atoms: _504  and  _506
REMARK  215  A    between atoms: _506  and  _507
REMARK  216  A    between atoms: _509  and  _511
REMARK  217  A    between atoms: _511  and  _512
REMARK  218  A    between atoms: _511  and  _514
REMARK  219  A    between atoms: _514  and  _515
REMARK  220  A    between atoms: _518  and  _520
REMARK  221  A    between atoms: _520  and  _521
REMARK  222  A    between atoms: _520  and  _523
REMARK  223  A    between atoms: _523  and  _524
REMARK  224  A    between atoms: _524  and  _525
REMARK  225  A    between atoms: _525  and  _526
REMARK  226  A    between atoms: _526  and  _527
REMARK  227  A    between atoms: _531  and  _533
REMARK  228  A    between atoms: _533  and  _534
REMARK  229  A    between atoms: _533  and  _536
REMARK  230  A    between atoms: _539  and  _541
REMARK  231  A    between atoms: _541  and  _542
REMARK  232  A    between atoms: _541  and  _544
REMARK  233  A    between atoms: _544  and  _545
REMARK  234  A    between atoms: _550  and  _551
REMARK                            x       y       z     vdW  Elec       q    Type
REMARK                         _______ _______ _______ _____ _____    ______ ____
ROOT
ATOM      1  CA  ASN A   5      -1.152   8.297  20.768  0.00  0.00    +0.158 C 
ENDROOT
BRANCH   1   4
ATOM      2  C   SER A   4      -2.369   7.022  19.079  0.00  0.00    +0.243 C 
ATOM      3  O   SER A   4      -2.701   6.148  19.889  0.00  0.00    -0.273 OA
ATOM      4  N   ASN A   5      -1.598   8.065  19.399  0.00  0.00    -0.297 N 
ATOM      5  H   ASN A   5      -1.308   8.729  18.653  0.00  0.00    +0.150 HD
BRANCH   2   6
ATOM      6  CA  SER A   4      -2.843   6.947  17.631  0.00  0.00    +0.178 C 
BRANCH   6   9
ATOM      7  C   ILE A   3      -4.359   8.855  17.774  0.00  0.00    +0.241 C 
ATOM      8  O   ILE A   3      -4.981   8.356  18.718  0.00  0.00    -0.273 OA
ATOM      9  N   SER A   4      -3.346   8.236  17.163  0.00  0.00    -0.295 N 
ATOM     10  H   SER A   4      -2.904   8.682  16.334  0.00  0.00    +0.150 HD
BRANCH   7  11
ATOM     11  CA  ILE A   3      -4.708  10.258  17.266  0.00  0.00    +0.149 C 
BRANCH  11  14
ATOM     12  C   LEU A   2      -2.640  11.341  17.960  0.00  0.00    +0.241 C 
ATOM     13  O   LEU A   2      -2.858  11.068  19.135  0.00  0.00    -0.273 OA
ATOM     14  N   ILE A   3      -3.497  11.039  16.986  0.00  0.00    -0.297 N 
ATOM     15  H   ILE A   3      -3.306  11.360  16.016  0.00  0.00    +0.150 HD
BRANCH  12  16
ATOM     16  CA  LEU A   2      -1.344  12.047  17.552  0.00  0.00    +0.149 C 
BRANCH  16  19
ATOM     17  C   GLU A   1      -0.242  10.306  16.251  0.00  0.00    +0.238 C 
ATOM     18  O   GLU A   1      -0.107   9.580  17.246  0.00  0.00    -0.274 OA
ATOM     19  N   LEU A   2      -0.821  11.505  16.290  0.00  0.00    -0.297 N 
ATOM     20  H   LEU A   2      -0.904  12.064  15.417  0.00  0.00    +0.150 HD
BRANCH  17  21
ATOM     21  CA  GLU A   1       0.283   9.861  14.888  0.00  0.00    +0.145 C 
BRANCH  21  22
ATOM     22  N   GLU A   1      -0.635  10.225  13.816  0.00  0.00    -0.238 NA
ATOM     23  H   GLU A   1      -0.358  10.942  13.115  0.00  0.00    +0.142 HD
ENDBRANCH  21  22
BRANCH  21  24
ATOM     24  CB  GLU A   1       1.675  10.444  14.638  0.00  0.00    +0.038 C 
BRANCH  24  25
ATOM     25  CG  GLU A   1       2.348   9.942  13.355  0.00  0.00    +0.116 C 
BRANCH  25  26
ATOM     26  CD  GLU A   1       2.392   8.423  13.227  0.00  0.00    +0.365 C 
ATOM     27  OE2 GLU A   1       2.509   7.727  14.253  0.00  0.00    -0.246 OA
ATOM     28  OE1 GLU A   1       2.305   7.913  12.078  0.00  0.00    -0.246 OA
ENDBRANCH  25  26
ENDBRANCH  24  25
ENDBRANCH  21  24
ENDBRANCH  17  21
ENDBRANCH  16  19
BRANCH  16  29
ATOM     29  CB  LEU A   2      -1.523  13.577  17.475  0.00  0.00    +0.029 C 
BRANCH  29  30
ATOM     30  CG  LEU A   2      -0.221  14.364  17.201  0.00  0.00    +0.002 C 
ATOM     31  CD2 LEU A   2       0.834  14.157  18.281  0.00  0.00    +0.000 C 
ATOM     32  CD1 LEU A   2      -0.535  15.846  17.057  0.00  0.00    +0.000 C 
ENDBRANCH  29  30
ENDBRANCH  16  29
ENDBRANCH  12  16
ENDBRANCH  11  14
BRANCH  11  33
ATOM     33  CB  ILE A   3      -5.647  10.231  16.039  0.00  0.00    +0.027 C 
ATOM     34  CG2 ILE A   3      -6.730   9.162  16.190  0.00  0.00    +0.002 C 
BRANCH  33  35
ATOM     35  CG1 ILE A   3      -6.249  11.625  15.845  0.00  0.00    +0.002 C 
ATOM     36  CD1 ILE A   3      -7.045  11.813  14.565  0.00  0.00    +0.000 C 
ENDBRANCH  33  35
ENDBRANCH  11  33
ENDBRANCH   7  11
ENDBRANCH   6   9
BRANCH   6  37
ATOM     37  CB  SER A   4      -1.700   6.455  16.727  0.00  0.00    +0.166 C 
BRANCH  37  38
ATOM     38  OG  SER A   4      -1.224   5.202  17.167  0.00  0.00    -0.380 OA
ATOM     39  H   SER A   4      -0.887   5.285  18.094  0.00  0.00    +0.211 HD
ENDBRANCH  37  38
ENDBRANCH   6  37
ENDBRANCH   2   6
ENDBRANCH   1   4
BRANCH   1  40
ATOM     40  C   ASN A   5      -2.334   8.432  21.743  0.00  0.00    +0.241 C 
ATOM     41  O   ASN A   5      -2.319   7.859  22.831  0.00  0.00    -0.273 OA
ATOM     42  N   SER A   6      -3.358   9.178  21.342  0.00  0.00    -0.295 N 
ATOM     43  H   SER A   6      -3.300   9.678  20.432  0.00  0.00    +0.150 HD
BRANCH  42  44
ATOM     44  CA  SER A   6      -4.573   9.309  22.162  0.00  0.00    +0.178 C 
BRANCH  44  45
ATOM     45  C   SER A   6      -5.270   7.965  22.363  0.00  0.00    +0.243 C 
ATOM     46  O   SER A   6      -5.662   7.624  23.476  0.00  0.00    -0.273 OA
ATOM     47  N   SER A   7      -5.400   7.198  21.284  0.00  0.00    -0.295 N 
ATOM     48  H   SER A   7      -5.051   7.550  20.370  0.00  0.00    +0.150 HD
BRANCH  47  49
ATOM     49  CA  SER A   7      -6.020   5.874  21.345  0.00  0.00    +0.178 C 
BRANCH  49  50
ATOM     50  C   SER A   7      -5.271   4.956  22.321  0.00  0.00    +0.243 C 
ATOM     51  O   SER A   7      -5.890   4.264  23.138  0.00  0.00    -0.273 OA
ATOM     52  N   ASP A   8      -3.941   4.963  22.249  0.00  0.00    -0.296 N 
ATOM     53  H   ASP A   8      -3.475   5.531  21.513  0.00  0.00    +0.150 HD
BRANCH  52  54
ATOM     54  CA  ASP A   8      -3.118   4.189  23.183  0.00  0.00    +0.160 C 
BRANCH  54  55
ATOM     55  C   ASP A   8      -3.370   4.603  24.647  0.00  0.00    +0.241 C 
ATOM     56  O   ASP A   8      -3.503   3.747  25.533  0.00  0.00    -0.273 OA
ATOM     57  N   ALA A   9      -3.424   5.908  24.904  0.00  0.00    -0.297 N 
ATOM     58  H   ALA A   9      -3.279   6.586  24.129  0.00  0.00    +0.150 HD
BRANCH  57  59
ATOM     59  CA  ALA A   9      -3.684   6.411  26.262  0.00  0.00    +0.149 C 
ATOM     60  CB  ALA A   9      -3.478   7.912  26.318  0.00  0.00    +0.031 C 
BRANCH  59  61
ATOM     61  C   ALA A   9      -5.091   6.044  26.740  0.00  0.00    +0.241 C 
ATOM     62  O   ALA A   9      -5.313   5.762  27.926  0.00  0.00    -0.273 OA
ATOM     63  N   LEU A  10      -6.047   6.089  25.819  0.00  0.00    -0.298 N 
ATOM     64  H   LEU A  10      -5.821   6.425  24.861  0.00  0.00    +0.150 HD
BRANCH  63  65
ATOM     65  CA  LEU A  10      -7.412   5.673  26.132  0.00  0.00    +0.137 C 
BRANCH  65  66
ATOM     66  C   LEU A  10      -7.449   4.165  26.423  0.00  0.00    +0.227 C 
ATOM     67  O   LEU A  10      -8.082   3.735  27.389  0.00  0.00    -0.286 OA
ENDBRANCH  65  66
BRANCH  65  68
ATOM     68  CB  LEU A  10      -8.348   6.052  24.989  0.00  0.00    +0.028 C 
BRANCH  68  69
ATOM     69  CG  LEU A  10      -8.626   7.559  24.941  0.00  0.00    +0.002 C 
ATOM     70  CD2 LEU A  10      -9.663   7.954  25.987  0.00  0.00    +0.000 C 
ATOM     71  CD1 LEU A  10      -9.093   7.937  23.553  0.00  0.00    +0.000 C 
ENDBRANCH  68  69
ENDBRANCH  65  68
ENDBRANCH  63  65
ENDBRANCH  59  61
ENDBRANCH  57  59
ENDBRANCH  54  55
BRANCH  54  72
ATOM     72  CB  ASP A   8      -1.627   4.355  22.848  0.00  0.00    +0.143 C 
BRANCH  72  73
ATOM     73  CG  ASP A   8      -1.221   3.659  21.555  0.00  0.00    +0.367 C 
ATOM     74  OD2 ASP A   8      -0.069   3.879  21.121  0.00  0.00    -0.246 OA
ATOM     75  OD1 ASP A   8      -2.027   2.899  20.962  0.00  0.00    -0.246 OA
ENDBRANCH  72  73
ENDBRANCH  54  72
ENDBRANCH  52  54
ENDBRANCH  49  50
BRANCH  49  76
ATOM     76  CB  SER A   7      -6.074   5.266  19.937  0.00  0.00    +0.166 C 
BRANCH  76  77
ATOM     77  OG  SER A   7      -6.705   3.999  19.932  0.00  0.00    -0.380 OA
ATOM     78  H   SER A   7      -6.203   3.379  20.519  0.00  0.00    +0.211 HD
ENDBRANCH  76  77
ENDBRANCH  49  76
ENDBRANCH  47  49
ENDBRANCH  44  45
BRANCH  44  79
ATOM     79  CB  SER A   6      -5.538  10.313  21.529  0.00  0.00    +0.166 C 
BRANCH  79  80
ATOM     80  OG  SER A   6      -4.999  11.618  21.615  0.00  0.00    -0.380 OA
ATOM     81  H   SER A   6      -4.859  11.854  22.566  0.00  0.00    +0.211 HD
ENDBRANCH  79  80
ENDBRANCH  44  79
ENDBRANCH  42  44
ENDBRANCH   1  40
BRANCH   1  82
ATOM     82  CB  ASN A   5      -0.244   9.538  20.845  0.00  0.00    +0.114 C 
BRANCH  82  83
ATOM     83  CG  ASN A   5       1.150   9.301  20.262  0.00  0.00    +0.222 C 
ATOM     84  ND2 ASN A   5       1.906  10.384  20.109  0.00  0.00    -0.329 N 
ATOM     85 HD21 ASN A   5       1.526  11.322  20.349  0.00  0.00    +0.145 HD
ATOM     86 HD22 ASN A   5       2.878  10.293  19.750  0.00  0.00    +0.145 HD
ATOM     87  OD1 ASN A   5       1.559   8.163  19.990  0.00  0.00    -0.275 OA
ENDBRANCH  82  83
ENDBRANCH   1  82
TORSDOF 39
REMARK  Name = ../refined-set-2016/4cwn/4cwn_pocket.pdb
REMARK  234 active torsions:
REMARK  status: ('A' for Active; 'I' for Inactive)
REMARK    1  A    between atoms: _1  and  _3
REMARK    2  A    between atoms: _3  and  _4
REMARK    3  A    between atoms: _3  and  _6
REMARK    4  A    between atoms: _6  and  _7
REMARK    5  A    between atoms: _13  and  _15
REMARK    6  A    between atoms: _15  and  _16
REMARK    7  A    between atoms: _15  and  _18
REMARK    8  A    between atoms: _18  and  _19
REMARK    9  A    between atoms: _22  and  _24
REMARK   10  A    between atoms: _24  and  _25
REMARK   11  A    between atoms: _24  and  _27
REMARK   12  A    between atoms: _27  and  _28
REMARK   13  A    between atoms: _31  and  _33
REMARK   14  A    between atoms: _33  and  _34
REMARK   15  A    between atoms: _33  and  _36
REMARK   16  A    between atoms: _36  and  _37
REMARK   17  A    between atoms: _37  and  _38
REMARK   18  A    between atoms: _41  and  _43
REMARK   19  A    between atoms: _43  and  _44
REMARK   20  A    between atoms: _43  and  _46
REMARK   21  A    between atoms: _46  and  _47
REMARK   22  A    between atoms: _50  and  _52
REMARK   23  A    between atoms: _52  and  _53
REMARK   24  A    between atoms: _52  and  _55
REMARK   25  A    between atoms: _55  and  _56
REMARK   26  A    between atoms: _59  and  _61
REMARK   27  A    between atoms: _61  and  _62
REMARK   28  A    between atoms: _61  and  _64
REMARK   29  A    between atoms: _64  and  _65
REMARK   30  A    between atoms: _67  and  _69
REMARK   31  A    between atoms: _69  and  _70
REMARK   32  A    between atoms: _69  and  _72
REMARK   33  A    between atoms: _72  and  _73
REMARK   34  A    between atoms: _78  and  _80
REMARK   35  A    between atoms: _80  and  _81
REMARK   36  A    between atoms: _80  and  _83
REMARK   37  A    between atoms: _83  and  _84
REMARK   38  A    between atoms: _86  and  _88
REMARK   39  A    between atoms: _88  and  _89
REMARK   40  A    between atoms: _88  and  _91
REMARK   41  A    between atoms: _91  and  _92
REMARK   42  A    between atoms: _94  and  _96
REMARK   43  A    between atoms: _96  and  _97
REMARK   44  A    between atoms: _96  and  _99
REMARK   45  A    between atoms: _99  and  _100
REMARK   46  A    between atoms: _103  and  _105
REMARK   47  A    between atoms: _105  and  _106
REMARK   48  A    between atoms: _109  and  _111
REMARK   49  A    between atoms: _111  and  _112
REMARK   50  A    between atoms: _111  and  _114
REMARK   51  A    between atoms: _114  and  _115
REMARK   52  A    between atoms: _118  and  _120
REMARK   53  A    between atoms: _120  and  _121
REMARK   54  A    between atoms: _120  and  _123
REMARK   55  A    between atoms: _123  and  _124
REMARK   56  A    between atoms: _124  and  _125
REMARK   57  A    between atoms: _125  and  _126
REMARK   58  A    between atoms: _126  and  _127
REMARK   59  A    between atoms: _131  and  _133
REMARK   60  A    between atoms: _133  and  _134
REMARK   61  A    between atoms: _133  and  _136
REMARK   62  A    between atoms: _136  and  _137
REMARK   63  A    between atoms: _140  and  _142
REMARK   64  A    between atoms: _142  and  _143
REMARK   65  A    between atoms: _142  and  _145
REMARK   66  A    between atoms: _145  and  _146
REMARK   67  A    between atoms: _149  and  _151
REMARK   68  A    between atoms: _151  and  _152
REMARK   69  A    between atoms: _151  and  _154
REMARK   70  A    between atoms: _157  and  _159
REMARK   71  A    between atoms: _159  and  _160
REMARK   72  A    between atoms: _159  and  _162
REMARK   73  A    between atoms: _162  and  _163
REMARK   74  A    between atoms: _166  and  _168
REMARK   75  A    between atoms: _168  and  _169
REMARK   76  A    between atoms: _168  and  _171
REMARK   77  A    between atoms: _171  and  _172
REMARK   78  A    between atoms: _175  and  _177
REMARK   79  A    between atoms: _177  and  _178
REMARK   80  A    between atoms: _180  and  _182
REMARK   81  A    between atoms: _182  and  _183
REMARK   82  A    between atoms: _182  and  _185
REMARK   83  A    between atoms: _185  and  _186
REMARK   84  A    between atoms: _189  and  _191
REMARK   85  A    between atoms: _191  and  _192
REMARK   86  A    between atoms: _194  and  _196
REMARK   87  A    between atoms: _196  and  _197
REMARK   88  A    between atoms: _196  and  _199
REMARK   89  A    between atoms: _199  and  _200
REMARK   90  A    between atoms: _200  and  _201
REMARK   91  A    between atoms: _203  and  _205
REMARK   92  A    between atoms: _205  and  _206
REMARK   93  A    between atoms: _205  and  _208
REMARK   94  A    between atoms: _208  and  _209
REMARK   95  A    between atoms: _212  and  _214
REMARK   96  A    between atoms: _214  and  _215
REMARK   97  A    between atoms: _214  and  _217
REMARK   98  A    between atoms: _217  and  _218
REMARK   99  A    between atoms: _221  and  _223
REMARK  100  A    between atoms: _223  and  _224
REMARK  101  A    between atoms: _223  and  _226
REMARK  102  A    between atoms: _226  and  _227
REMARK  103  A    between atoms: _230  and  _232
REMARK  104  A    between atoms: _232  and  _233
REMARK  105  A    between atoms: _232  and  _235
REMARK  106  A    between atoms: _235  and  _236
REMARK  107  A    between atoms: _239  and  _241
REMARK  108  A    between atoms: _241  and  _242
REMARK  109  A    between atoms: _241  and  _244
REMARK  110  A    between atoms: _244  and  _245
REMARK  111  A    between atoms: _250  and  _252
REMARK  112  A    between atoms: _252  and  _253
REMARK  113  A    between atoms: _252  and  _255
REMARK  114  A    between atoms: _255  and  _256
REMARK  115  A    between atoms: _259  and  _261
REMARK  116  A    between atoms: _261  and  _262
REMARK  117  A    between atoms: _264  and  _266
REMARK  118  A    between atoms: _266  and  _267
REMARK  119  A    between atoms: _266  and  _269
REMARK  120  A    between atoms: _269  and  _270
REMARK  121  A    between atoms: _273  and  _275
REMARK  122  A    between atoms: _275  and  _276
REMARK  123  A    between atoms: _275  and  _278
REMARK  124  A    between atoms: _278  and  _279
REMARK  125  A    between atoms: _282  and  _284
REMARK  126  A    between atoms: _284  and  _285
REMARK  127  A    between atoms: _288  and  _290
REMARK  128  A    between atoms: _290  and  _291
REMARK  129  A    between atoms: _290  and  _293
REMARK  130  A    between atoms: _293  and  _294
REMARK  131  A    between atoms: _294  and  _295
REMARK  132  A    between atoms: _295  and  _296
REMARK  133  A    between atoms: _296  and  _297
REMARK  134  A    between atoms: _301  and  _303
REMARK  135  A    between atoms: _303  and  _304
REMARK  136  A    between atoms: _303  and  _306
REMARK  137  A    between atoms: _306  and  _307
REMARK  138  A    between atoms: _310  and  _312
REMARK  139  A    between atoms: _312  and  _313
REMARK  140  A    between atoms: _315  and  _317
REMARK  141  A    between atoms: _317  and  _318
REMARK  142  A    between atoms: _317  and  _320
REMARK  143  A    between atoms: _323  and  _325
REMARK  144  A    between atoms: _325  and  _326
REMARK  145  A    between atoms: _328  and  _330
REMARK  146  A    between atoms: _330  and  _331
REMARK  147  A    between atoms: _330  and  _333
REMARK  148  A    between atoms: _333  and  _334
REMARK  149  A    between atoms: _340  and  _342
REMARK  150  A    between atoms: _342  and  _343
REMARK  151  A    between atoms: _342  and  _345
REMARK  152  A    between atoms: _345  and  _346
REMARK  153  A    between atoms: _351  and  _352
REMARK  154  A    between atoms: _354  and  _356
REMARK  155  A    between atoms: _356  and  _357
REMARK  156  A    between atoms: _356  and  _359
REMARK  157  A    between atoms: _359  and  _360
REMARK  158  A    between atoms: _365  and  _366
REMARK  159  A    between atoms: _368  and  _370
REMARK  160  A    between atoms: _370  and  _371
REMARK  161  A    between atoms: _370  and  _373
REMARK  162  A    between atoms: _376  and  _378
REMARK  163  A    between atoms: _378  and  _379
REMARK  164  A    between atoms: _378  and  _381
REMARK  165  A    between atoms: _381  and  _382
REMARK  166  A    between atoms: _385  and  _387
REMARK  167  A    between atoms: _387  and  _388
REMARK  168  A    between atoms: _387  and  _390
REMARK  169  A    between atoms: _393  and  _395
REMARK  170  A    between atoms: _395  and  _396
REMARK  171  A    between atoms: _395  and  _398
REMARK  172  A    between atoms: _398  and  _399
REMARK  173  A    between atoms: _402  and  _404
REMARK  174  A    between atoms: _404  and  _405
REMARK  175  A    between atoms: _404  and  _407
REMARK  176  A    between atoms: _407  and  _408
REMARK  177  A    between atoms: _411  and  _413
REMARK  178  A    between atoms: _413  and  _414
REMARK  179  A    between atoms: _413  and  _416
REMARK  180  A    between atoms: _416  and  _417
REMARK  181  A    between atoms: _417  and  _418
REMARK  182  A    between atoms: _418  and  _419
REMARK  183  A    between atoms: _419  and  _420
REMARK  184  A    between atoms: _424  and  _426
REMARK  185  A    between atoms: _426  and  _427
REMARK  186  A    between atoms: _426  and  _429
REMARK  187  A    between atoms: _429  and  _430
REMARK  188  A    between atoms: _435  and  _437
REMARK  189  A    between atoms: _437  and  _438
REMARK  190  A    between atoms: _441  and  _443
REMARK  191  A    between atoms: _443  and  _444
REMARK  192  A    between atoms: _443  and  _446
REMARK  193  A    between atoms: _446  and  _447
REMARK  194  A    between atoms: _457  and  _459
REMARK  195  A    between atoms: _459  and  _460
REMARK  196  A    between atoms: _459  and  _462
REMARK  197  A    between atoms: _462  and  _463
REMARK  198  A    between atoms: _463  and  _464
REMARK  199  A    between atoms: _467  and  _469
REMARK  200  A    between atoms: _469  and  _470
REMARK  201  A    between atoms: _469  and  _472
REMARK  202  A    between atoms: _472  and  _473
REMARK  203  A    between atoms: _475  and  _477
REMARK  204  A    between atoms: _477  and  _478
REMARK  205  A    between atoms: _477  and  _480
REMARK  206  A    between atoms: _480  and  _481
REMARK  207  A    between atoms: _487  and  _489
REMARK  208  A    between atoms: _489  and  _490
REMARK  209  A    between atoms: _489  and  _492
REMARK  210  A    between atoms: _492  and  _493
REMARK  211  A    between atoms: _496  and  _498
REMARK  212  A    between atoms: _498  and  _499
REMARK  213  A    between atoms: _498  and  _501
REMARK  214  A    between atoms: _504  and  _506
REMARK  215  A    between atoms: _506  and  _507
REMARK  216  A    between atoms: _509  and  _511
REMARK  217  A    between atoms: _511  and  _512
REMARK  218  A    between atoms: _511  and  _514
REMARK  219  A    between atoms: _514  and  _515
REMARK  220  A    between atoms: _518  and  _520
REMARK  221  A    between atoms: _520  and  _521
REMARK  222  A    between atoms: _520  and  _523
REMARK  223  A    between atoms: _523  and  _524
REMARK  224  A    between atoms: _524  and  _525
REMARK  225  A    between atoms: _525  and  _526
REMARK  226  A    between atoms: _526  and  _527
REMARK  227  A    between atoms: _531  and  _533
REMARK  228  A    between atoms: _533  and  _534
REMARK  229  A    between atoms: _533  and  _536
REMARK  230  A    between atoms: _539  and  _541
REMARK  231  A    between atoms: _541  and  _542
REMARK  232  A    between atoms: _541  and  _544
REMARK  233  A    between atoms: _544  and  _545
REMARK  234  A    between atoms: _550  and  _551
REMARK                            x       y       z     vdW  Elec       q    Type
REMARK                         _______ _______ _______ _____ _____    ______ ____
ROOT
ATOM      1  CA  LYS A   1      -4.475   2.222  29.054  0.00  0.00    +0.145 C 
ENDROOT
BRANCH   1   2
ATOM      2  C   LYS A   1      -5.408   2.484  30.233  0.00  0.00    +0.238 C 
ATOM      3  O   LYS A   1      -5.502   1.654  31.145  0.00  0.00    -0.274 OA
ATOM      4  N   ILE A   2      -6.115   3.611  30.207  0.00  0.00    -0.298 N 
ATOM      5  H   ILE A   2      -5.980   4.289  29.430  0.00  0.00    +0.150 HD
BRANCH   4   6
ATOM      6  CA  ILE A   2      -7.086   3.901  31.271  0.00  0.00    +0.137 C 
BRANCH   6   7
ATOM      7  CB  ILE A   2      -7.536   5.396  31.292  0.00  0.00    +0.026 C 
ATOM      8  CG2 ILE A   2      -8.379   5.765  30.072  0.00  0.00    +0.002 C 
BRANCH   7   9
ATOM      9  CG1 ILE A   2      -8.296   5.736  32.588  0.00  0.00    +0.002 C 
ATOM     10  CD1 ILE A   2      -7.448   5.653  33.844  0.00  0.00    +0.000 C 
ENDBRANCH   7   9
ENDBRANCH   6   7
BRANCH   6  11
ATOM     11  C   ILE A   2      -8.268   2.916  31.254  0.00  0.00    +0.227 C 
ATOM     12  O   ILE A   2      -8.753   2.499  32.313  0.00  0.00    -0.286 OA
ENDBRANCH   6  11
ENDBRANCH   4   6
ENDBRANCH   1   2
BRANCH   1  13
ATOM     13  N   LYS A   1      -5.118   2.428  27.747  0.00  0.00    -0.238 NA
ATOM     14  H   LYS A   1      -4.786   3.203  27.138  0.00  0.00    +0.142 HD
ENDBRANCH   1  13
BRANCH   1  15
ATOM     15  CB  LYS A   1      -3.172   3.036  29.182  0.00  0.00    +0.026 C 
BRANCH  15  16
ATOM     16  CG  LYS A   1      -2.058   2.496  28.286  0.00  0.00    -0.000 C 
BRANCH  16  17
ATOM     17  CD  LYS A   1      -0.807   3.376  28.241  0.00  0.00    -0.024 C 
BRANCH  17  18
ATOM     18  CE  LYS A   1       0.204   2.768  27.268  0.00  0.00    -0.086 C 
BRANCH  18  19
ATOM     19  NZ  LYS A   1       1.190   3.754  26.735  0.00  0.00    +0.380 N 
ATOM     20  HZ1 LYS A   1       1.727   4.166  27.524  0.00  0.00    -0.089 HD
ATOM     21  HZ2 LYS A   1       0.685   4.508  26.227  0.00  0.00    -0.089 HD
ATOM     22  HZ3 LYS A   1       1.842   3.273  26.084  0.00  0.00    -0.089 HD
ENDBRANCH  18  19
ENDBRANCH  17  18
ENDBRANCH  16  17
ENDBRANCH  15  16
ENDBRANCH   1  15
TORSDOF 11
REMARK  Name = ../refined-set-2016/4cwn/4cwn_pocket.pdb
REMARK  234 active torsions:
REMARK  status: ('A' for Active; 'I' for Inactive)
REMARK    1  A    between atoms: _1  and  _3
REMARK    2  A    between atoms: _3  and  _4
REMARK    3  A    between atoms: _3  and  _6
REMARK    4  A    between atoms: _6  and  _7
REMARK    5  A    between atoms: _13  and  _15
REMARK    6  A    between atoms: _15  and  _16
REMARK    7  A    between atoms: _15  and  _18
REMARK    8  A    between atoms: _18  and  _19
REMARK    9  A    between atoms: _22  and  _24
REMARK   10  A    between atoms: _24  and  _25
REMARK   11  A    between atoms: _24  and  _27
REMARK   12  A    between atoms: _27  and  _28
REMARK   13  A    between atoms: _31  and  _33
REMARK   14  A    between atoms: _33  and  _34
REMARK   15  A    between atoms: _33  and  _36
REMARK   16  A    between atoms: _36  and  _37
REMARK   17  A    between atoms: _37  and  _38
REMARK   18  A    between atoms: _41  and  _43
REMARK   19  A    between atoms: _43  and  _44
REMARK   20  A    between atoms: _43  and  _46
REMARK   21  A    between atoms: _46  and  _47
REMARK   22  A    between atoms: _50  and  _52
REMARK   23  A    between atoms: _52  and  _53
REMARK   24  A    between atoms: _52  and  _55
REMARK   25  A    between atoms: _55  and  _56
REMARK   26  A    between atoms: _59  and  _61
REMARK   27  A    between atoms: _61  and  _62
REMARK   28  A    between atoms: _61  and  _64
REMARK   29  A    between atoms: _64  and  _65
REMARK   30  A    between atoms: _67  and  _69
REMARK   31  A    between atoms: _69  and  _70
REMARK   32  A    between atoms: _69  and  _72
REMARK   33  A    between atoms: _72  and  _73
REMARK   34  A    between atoms: _78  and  _80
REMARK   35  A    between atoms: _80  and  _81
REMARK   36  A    between atoms: _80  and  _83
REMARK   37  A    between atoms: _83  and  _84
REMARK   38  A    between atoms: _86  and  _88
REMARK   39  A    between atoms: _88  and  _89
REMARK   40  A    between atoms: _88  and  _91
REMARK   41  A    between atoms: _91  and  _92
REMARK   42  A    between atoms: _94  and  _96
REMARK   43  A    between atoms: _96  and  _97
REMARK   44  A    between atoms: _96  and  _99
REMARK   45  A    between atoms: _99  and  _100
REMARK   46  A    between atoms: _103  and  _105
REMARK   47  A    between atoms: _105  and  _106
REMARK   48  A    between atoms: _109  and  _111
REMARK   49  A    between atoms: _111  and  _112
REMARK   50  A    between atoms: _111  and  _114
REMARK   51  A    between atoms: _114  and  _115
REMARK   52  A    between atoms: _118  and  _120
REMARK   53  A    between atoms: _120  and  _121
REMARK   54  A    between atoms: _120  and  _123
REMARK   55  A    between atoms: _123  and  _124
REMARK   56  A    between atoms: _124  and  _125
REMARK   57  A    between atoms: _125  and  _126
REMARK   58  A    between atoms: _126  and  _127
REMARK   59  A    between atoms: _131  and  _133
REMARK   60  A    between atoms: _133  and  _134
REMARK   61  A    between atoms: _133  and  _136
REMARK   62  A    between atoms: _136  and  _137
REMARK   63  A    between atoms: _140  and  _142
REMARK   64  A    between atoms: _142  and  _143
REMARK   65  A    between atoms: _142  and  _145
REMARK   66  A    between atoms: _145  and  _146
REMARK   67  A    between atoms: _149  and  _151
REMARK   68  A    between atoms: _151  and  _152
REMARK   69  A    between atoms: _151  and  _154
REMARK   70  A    between atoms: _157  and  _159
REMARK   71  A    between atoms: _159  and  _160
REMARK   72  A    between atoms: _159  and  _162
REMARK   73  A    between atoms: _162  and  _163
REMARK   74  A    between atoms: _166  and  _168
REMARK   75  A    between atoms: _168  and  _169
REMARK   76  A    between atoms: _168  and  _171
REMARK   77  A    between atoms: _171  and  _172
REMARK   78  A    between atoms: _175  and  _177
REMARK   79  A    between atoms: _177  and  _178
REMARK   80  A    between atoms: _180  and  _182
REMARK   81  A    between atoms: _182  and  _183
REMARK   82  A    between atoms: _182  and  _185
REMARK   83  A    between atoms: _185  and  _186
REMARK   84  A    between atoms: _189  and  _191
REMARK   85  A    between atoms: _191  and  _192
REMARK   86  A    between atoms: _194  and  _196
REMARK   87  A    between atoms: _196  and  _197
REMARK   88  A    between atoms: _196  and  _199
REMARK   89  A    between atoms: _199  and  _200
REMARK   90  A    between atoms: _200  and  _201
REMARK   91  A    between atoms: _203  and  _205
REMARK   92  A    between atoms: _205  and  _206
REMARK   93  A    between atoms: _205  and  _208
REMARK   94  A    between atoms: _208  and  _209
REMARK   95  A    between atoms: _212  and  _214
REMARK   96  A    between atoms: _214  and  _215
REMARK   97  A    between atoms: _214  and  _217
REMARK   98  A    between atoms: _217  and  _218
REMARK   99  A    between atoms: _221  and  _223
REMARK  100  A    between atoms: _223  and  _224
REMARK  101  A    between atoms: _223  and  _226
REMARK  102  A    between atoms: _226  and  _227
REMARK  103  A    between atoms: _230  and  _232
REMARK  104  A    between atoms: _232  and  _233
REMARK  105  A    between atoms: _232  and  _235
REMARK  106  A    between atoms: _235  and  _236
REMARK  107  A    between atoms: _239  and  _241
REMARK  108  A    between atoms: _241  and  _242
REMARK  109  A    between atoms: _241  and  _244
REMARK  110  A    between atoms: _244  and  _245
REMARK  111  A    between atoms: _250  and  _252
REMARK  112  A    between atoms: _252  and  _253
REMARK  113  A    between atoms: _252  and  _255
REMARK  114  A    between atoms: _255  and  _256
REMARK  115  A    between atoms: _259  and  _261
REMARK  116  A    between atoms: _261  and  _262
REMARK  117  A    between atoms: _264  and  _266
REMARK  118  A    between atoms: _266  and  _267
REMARK  119  A    between atoms: _266  and  _269
REMARK  120  A    between atoms: _269  and  _270
REMARK  121  A    between atoms: _273  and  _275
REMARK  122  A    between atoms: _275  and  _276
REMARK  123  A    between atoms: _275  and  _278
REMARK  124  A    between atoms: _278  and  _279
REMARK  125  A    between atoms: _282  and  _284
REMARK  126  A    between atoms: _284  and  _285
REMARK  127  A    between atoms: _288  and  _290
REMARK  128  A    between atoms: _290  and  _291
REMARK  129  A    between atoms: _290  and  _293
REMARK  130  A    between atoms: _293  and  _294
REMARK  131  A    between atoms: _294  and  _295
REMARK  132  A    between atoms: _295  and  _296
REMARK  133  A    between atoms: _296  and  _297
REMARK  134  A    between atoms: _301  and  _303
REMARK  135  A    between atoms: _303  and  _304
REMARK  136  A    between atoms: _303  and  _306
REMARK  137  A    between atoms: _306  and  _307
REMARK  138  A    between atoms: _310  and  _312
REMARK  139  A    between atoms: _312  and  _313
REMARK  140  A    between atoms: _315  and  _317
REMARK  141  A    between atoms: _317  and  _318
REMARK  142  A    between atoms: _317  and  _320
REMARK  143  A    between atoms: _323  and  _325
REMARK  144  A    between atoms: _325  and  _326
REMARK  145  A    between atoms: _328  and  _330
REMARK  146  A    between atoms: _330  and  _331
REMARK  147  A    between atoms: _330  and  _333
REMARK  148  A    between atoms: _333  and  _334
REMARK  149  A    between atoms: _340  and  _342
REMARK  150  A    between atoms: _342  and  _343
REMARK  151  A    between atoms: _342  and  _345
REMARK  152  A    between atoms: _345  and  _346
REMARK  153  A    between atoms: _351  and  _352
REMARK  154  A    between atoms: _354  and  _356
REMARK  155  A    between atoms: _356  and  _357
REMARK  156  A    between atoms: _356  and  _359
REMARK  157  A    between atoms: _359  and  _360
REMARK  158  A    between atoms: _365  and  _366
REMARK  159  A    between atoms: _368  and  _370
REMARK  160  A    between atoms: _370  and  _371
REMARK  161  A    between atoms: _370  and  _373
REMARK  162  A    between atoms: _376  and  _378
REMARK  163  A    between atoms: _378  and  _379
REMARK  164  A    between atoms: _378  and  _381
REMARK  165  A    between atoms: _381  and  _382
REMARK  166  A    between atoms: _385  and  _387
REMARK  167  A    between atoms: _387  and  _388
REMARK  168  A    between atoms: _387  and  _390
REMARK  169  A    between atoms: _393  and  _395
REMARK  170  A    between atoms: _395  and  _396
REMARK  171  A    between atoms: _395  and  _398
REMARK  172  A    between atoms: _398  and  _399
REMARK  173  A    between atoms: _402  and  _404
REMARK  174  A    between atoms: _404  and  _405
REMARK  175  A    between atoms: _404  and  _407
REMARK  176  A    between atoms: _407  and  _408
REMARK  177  A    between atoms: _411  and  _413
REMARK  178  A    between atoms: _413  and  _414
REMARK  179  A    between atoms: _413  and  _416
REMARK  180  A    between atoms: _416  and  _417
REMARK  181  A    between atoms: _417  and  _418
REMARK  182  A    between atoms: _418  and  _419
REMARK  183  A    between atoms: _419  and  _420
REMARK  184  A    between atoms: _424  and  _426
REMARK  185  A    between atoms: _426  and  _427
REMARK  186  A    between atoms: _426  and  _429
REMARK  187  A    between atoms: _429  and  _430
REMARK  188  A    between atoms: _435  and  _437
REMARK  189  A    between atoms: _437  and  _438
REMARK  190  A    between atoms: _441  and  _443
REMARK  191  A    between atoms: _443  and  _444
REMARK  192  A    between atoms: _443  and  _446
REMARK  193  A    between atoms: _446  and  _447
REMARK  194  A    between atoms: _457  and  _459
REMARK  195  A    between atoms: _459  and  _460
REMARK  196  A    between atoms: _459  and  _462
REMARK  197  A    between atoms: _462  and  _463
REMARK  198  A    between atoms: _463  and  _464
REMARK  199  A    between atoms: _467  and  _469
REMARK  200  A    between atoms: _469  and  _470
REMARK  201  A    between atoms: _469  and  _472
REMARK  202  A    between atoms: _472  and  _473
REMARK  203  A    between atoms: _475  and  _477
REMARK  204  A    between atoms: _477  and  _478
REMARK  205  A    between atoms: _477  and  _480
REMARK  206  A    between atoms: _480  and  _481
REMARK  207  A    between atoms: _487  and  _489
REMARK  208  A    between atoms: _489  and  _490
REMARK  209  A    between atoms: _489  and  _492
REMARK  210  A    between atoms: _492  and  _493
REMARK  211  A    between atoms: _496  and  _498
REMARK  212  A    between atoms: _498  and  _499
REMARK  213  A    between atoms: _498  and  _501
REMARK  214  A    between atoms: _504  and  _506
REMARK  215  A    between atoms: _506  and  _507
REMARK  216  A    between atoms: _509  and  _511
REMARK  217  A    between atoms: _511  and  _512
REMARK  218  A    between atoms: _511  and  _514
REMARK  219  A    between atoms: _514  and  _515
REMARK  220  A    between atoms: _518  and  _520
REMARK  221  A    between atoms: _520  and  _521
REMARK  222  A    between atoms: _520  and  _523
REMARK  223  A    between atoms: _523  and  _524
REMARK  224  A    between atoms: _524  and  _525
REMARK  225  A    between atoms: _525  and  _526
REMARK  226  A    between atoms: _526  and  _527
REMARK  227  A    between atoms: _531  and  _533
REMARK  228  A    between atoms: _533  and  _534
REMARK  229  A    between atoms: _533  and  _536
REMARK  230  A    between atoms: _539  and  _541
REMARK  231  A    between atoms: _541  and  _542
REMARK  232  A    between atoms: _541  and  _544
REMARK  233  A    between atoms: _544  and  _545
REMARK  234  A    between atoms: _550  and  _551
REMARK                            x       y       z     vdW  Elec       q    Type
REMARK                         _______ _______ _______ _____ _____    ______ ____
ROOT
ATOM      1  C   THR A   4      -8.916  10.241  28.444  0.00  0.00    +0.243 C 
ATOM      2  O   THR A   4      -9.417   9.433  29.232  0.00  0.00    -0.273 OA
ATOM      3  N   GLY A   5      -7.721  10.053  27.888  0.00  0.00    -0.295 N 
ATOM      4  H   GLY A   5      -7.363  10.747  27.201  0.00  0.00    +0.150 HD
ENDROOT
BRANCH   3   5
ATOM      5  CA  GLY A   5      -6.902   8.890  28.225  0.00  0.00    +0.176 C 
BRANCH   5   6
ATOM      6  C   GLY A   5      -6.270   8.972  29.605  0.00  0.00    +0.243 C 
ATOM      7  O   GLY A   5      -6.648   9.803  30.431  0.00  0.00    -0.273 OA
ATOM      8  N   ILE A   6      -5.292   8.105  29.846  0.00  0.00    -0.297 N 
ATOM      9  H   ILE A   6      -4.947   7.507  29.068  0.00  0.00    +0.150 HD
BRANCH   8  10
ATOM     10  CA  ILE A   6      -4.681   7.962  31.176  0.00  0.00    +0.149 C 
BRANCH  10  11
ATOM     11  C   ILE A   6      -3.940   9.227  31.634  0.00  0.00    +0.241 C 
ATOM     12  O   ILE A   6      -3.833   9.498  32.838  0.00  0.00    -0.273 OA
ATOM     13  N   GLY A   7      -3.443  10.006  30.673  0.00  0.00    -0.295 N 
ATOM     14  H   GLY A   7      -3.596   9.745  29.678  0.00  0.00    +0.150 HD
BRANCH  13  15
ATOM     15  CA  GLY A   7      -2.687  11.219  30.986  0.00  0.00    +0.176 C 
BRANCH  15  16
ATOM     16  C   GLY A   7      -1.255  10.912  31.391  0.00  0.00    +0.243 C 
ATOM     17  N   MET A   8      -0.482  11.967  31.634  0.00  0.00    -0.297 N 
ATOM     18  H   MET A   8      -0.909  12.915  31.636  0.00  0.00    +0.150 HD
ATOM     19  O   GLY A   7      -0.857   9.744  31.499  0.00  0.00    -0.273 OA
BRANCH  17  20
ATOM     20  CA  MET A   8       0.949  11.835  31.898  0.00  0.00    +0.149 C 
BRANCH  20  21
ATOM     21  C   MET A   8       1.333  12.511  33.205  0.00  0.00    +0.241 C 
ATOM     22  N   THR A   9       2.270  11.886  33.912  0.00  0.00    -0.296 N 
ATOM     23  H   THR A   9       2.650  10.991  33.542  0.00  0.00    +0.150 HD
ATOM     24  O   MET A   8       0.806  13.572  33.538  0.00  0.00    -0.273 OA
BRANCH  22  25
ATOM     25  CA  THR A   9       2.799  12.392  35.190  0.00  0.00    +0.164 C 
BRANCH  25  26
ATOM     26  C   THR A   9       3.947  13.383  34.941  0.00  0.00    +0.229 C 
ATOM     27  O   THR A   9       4.489  13.457  33.839  0.00  0.00    -0.286 OA
ENDBRANCH  25  26
BRANCH  25  28
ATOM     28  CB  THR A   9       3.356  11.243  36.044  0.00  0.00    +0.136 C 
ATOM     29  CG2 THR A   9       2.290  10.185  36.309  0.00  0.00    +0.034 C 
BRANCH  28  30
ATOM     30  OG1 THR A   9       4.459  10.638  35.355  0.00  0.00    -0.382 OA
ATOM     31  HG1 THR A   9       4.821   9.897  35.902  0.00  0.00    +0.210 HD
ENDBRANCH  28  30
ENDBRANCH  25  28
ENDBRANCH  22  25
ENDBRANCH  20  21
BRANCH  20  32
ATOM     32  CB  MET A   8       1.772  12.449  30.758  0.00  0.00    +0.041 C 
BRANCH  32  33
ATOM     33  CG  MET A   8       1.728  11.628  29.474  0.00  0.00    +0.060 C 
BRANCH  33  34
ATOM     34  SD  MET A   8       2.447  12.470  28.056  0.00  0.00    -0.139 S 
ATOM     35  CE  MET A   8       1.226  13.750  27.749  0.00  0.00    +0.069 C 
ENDBRANCH  33  34
ENDBRANCH  32  33
ENDBRANCH  20  32
ENDBRANCH  17  20
ENDBRANCH  15  16
ENDBRANCH  13  15
ENDBRANCH  10  11
BRANCH  10  36
ATOM     36  CB  ILE A   6      -3.767   6.716  31.227  0.00  0.00    +0.027 C 
ATOM     37  CG2 ILE A   6      -2.544   6.885  30.322  0.00  0.00    +0.002 C 
BRANCH  36  38
ATOM     38  CG1 ILE A   6      -3.379   6.375  32.673  0.00  0.00    +0.002 C 
ATOM     39  CD1 ILE A   6      -2.999   4.919  32.871  0.00  0.00    +0.000 C 
ENDBRANCH  36  38
ENDBRANCH  10  36
ENDBRANCH   8  10
ENDBRANCH   5   6
ENDBRANCH   3   5
BRANCH   1  40
ATOM     40  CA  THR A   4      -9.639  11.534  28.055  0.00  0.00    +0.176 C 
BRANCH  40  43
ATOM     41  C   ASP A   3      -8.556  12.785  26.272  0.00  0.00    +0.241 C 
ATOM     42  O   ASP A   3      -8.016  13.570  27.062  0.00  0.00    -0.273 OA
ATOM     43  N   THR A   4      -9.399  11.834  26.644  0.00  0.00    -0.295 N 
ATOM     44  H   THR A   4      -9.902  11.288  25.916  0.00  0.00    +0.150 HD
BRANCH  41  45
ATOM     45  CA  ASP A   3      -8.285  12.871  24.782  0.00  0.00    +0.160 C 
BRANCH  45  47
ATOM     46  C   VAL A   2      -8.333  14.857  23.400  0.00  0.00    +0.241 C 
ATOM     47  N   ASP A   3      -7.792  14.187  24.418  0.00  0.00    -0.297 N 
ATOM     48  H   ASP A   3      -7.010  14.611  24.956  0.00  0.00    +0.150 HD
ATOM     49  O   VAL A   2      -9.140  14.350  22.623  0.00  0.00    -0.273 OA
BRANCH  46  50
ATOM     50  CA  VAL A   2      -7.918  16.308  23.221  0.00  0.00    +0.148 C 
BRANCH  50  53
ATOM     51  C   ILE A   1      -6.376  16.831  21.416  0.00  0.00    +0.238 C 
ATOM     52  O   ILE A   1      -5.412  16.870  22.194  0.00  0.00    -0.274 OA
ATOM     53  N   VAL A   2      -7.611  16.556  21.818  0.00  0.00    -0.297 N 
ATOM     54  H   VAL A   2      -8.377  16.517  21.116  0.00  0.00    +0.150 HD
BRANCH  51  55
ATOM     55  CA  ILE A   1      -6.198  17.142  19.925  0.00  0.00    +0.145 C 
BRANCH  55  56
ATOM     56  N   ILE A   1      -5.762  18.539  19.854  0.00  0.00    -0.238 NA
ATOM     57  H   ILE A   1      -4.800  18.779  20.167  0.00  0.00    +0.142 HD
ENDBRANCH  55  56
BRANCH  55  58
ATOM     58  CB  ILE A   1      -5.168  16.172  19.278  0.00  0.00    +0.025 C 
ATOM     59  CG2 ILE A   1      -5.582  14.715  19.463  0.00  0.00    +0.002 C 
BRANCH  58  60
ATOM     60  CG1 ILE A   1      -4.960  16.458  17.779  0.00  0.00    +0.002 C 
ATOM     61  CD1 ILE A   1      -3.904  17.509  17.476  0.00  0.00    +0.000 C 
ENDBRANCH  58  60
ENDBRANCH  55  58
ENDBRANCH  51  55
ENDBRANCH  50  53
BRANCH  50  62
ATOM     62  CB  VAL A   2      -9.077  17.197  23.737  0.00  0.00    +0.027 C 
ATOM     63  CG2 VAL A   2      -9.253  17.016  25.247  0.00  0.00    +0.002 C 
ATOM     64  CG1 VAL A   2      -8.835  18.657  23.417  0.00  0.00    +0.002 C 
ENDBRANCH  50  62
ENDBRANCH  46  50
ENDBRANCH  45  47
BRANCH  45  65
ATOM     65  CB  ASP A   3      -7.337  11.743  24.323  0.00  0.00    +0.143 C 
BRANCH  65  66
ATOM     66  CG  ASP A   3      -5.986  11.769  25.033  0.00  0.00    +0.367 C 
ATOM     67  OD2 ASP A   3      -5.924  11.390  26.220  0.00  0.00    -0.246 OA
ATOM     68  OD1 ASP A   3      -4.971  12.129  24.395  0.00  0.00    -0.246 OA
ENDBRANCH  65  66
ENDBRANCH  45  65
ENDBRANCH  41  45
ENDBRANCH  40  43
BRANCH  40  69
ATOM     69  CB  THR A   4     -11.150  11.460  28.369  0.00  0.00    +0.137 C 
ATOM     70  CG2 THR A   4     -11.773  12.847  28.283  0.00  0.00    +0.034 C 
BRANCH  69  71
ATOM     71  OG1 THR A   4     -11.796  10.598  27.424  0.00  0.00    -0.382 OA
ATOM     72  HG1 THR A   4     -12.764  10.553  27.628  0.00  0.00    +0.210 HD
ENDBRANCH  69  71
ENDBRANCH  40  69
ENDBRANCH   1  40
TORSDOF 32
REMARK  Name = ../refined-set-2016/4cwn/4cwn_pocket.pdb
REMARK  234 active torsions:
REMARK  status: ('A' for Active; 'I' for Inactive)
REMARK    1  A    between atoms: _1  and  _3
REMARK    2  A    between atoms: _3  and  _4
REMARK    3  A    between atoms: _3  and  _6
REMARK    4  A    between atoms: _6  and  _7
REMARK    5  A    between atoms: _13  and  _15
REMARK    6  A    between atoms: _15  and  _16
REMARK    7  A    between atoms: _15  and  _18
REMARK    8  A    between atoms: _18  and  _19
REMARK    9  A    between atoms: _22  and  _24
REMARK   10  A    between atoms: _24  and  _25
REMARK   11  A    between atoms: _24  and  _27
REMARK   12  A    between atoms: _27  and  _28
REMARK   13  A    between atoms: _31  and  _33
REMARK   14  A    between atoms: _33  and  _34
REMARK   15  A    between atoms: _33  and  _36
REMARK   16  A    between atoms: _36  and  _37
REMARK   17  A    between atoms: _37  and  _38
REMARK   18  A    between atoms: _41  and  _43
REMARK   19  A    between atoms: _43  and  _44
REMARK   20  A    between atoms: _43  and  _46
REMARK   21  A    between atoms: _46  and  _47
REMARK   22  A    between atoms: _50  and  _52
REMARK   23  A    between atoms: _52  and  _53
REMARK   24  A    between atoms: _52  and  _55
REMARK   25  A    between atoms: _55  and  _56
REMARK   26  A    between atoms: _59  and  _61
REMARK   27  A    between atoms: _61  and  _62
REMARK   28  A    between atoms: _61  and  _64
REMARK   29  A    between atoms: _64  and  _65
REMARK   30  A    between atoms: _67  and  _69
REMARK   31  A    between atoms: _69  and  _70
REMARK   32  A    between atoms: _69  and  _72
REMARK   33  A    between atoms: _72  and  _73
REMARK   34  A    between atoms: _78  and  _80
REMARK   35  A    between atoms: _80  and  _81
REMARK   36  A    between atoms: _80  and  _83
REMARK   37  A    between atoms: _83  and  _84
REMARK   38  A    between atoms: _86  and  _88
REMARK   39  A    between atoms: _88  and  _89
REMARK   40  A    between atoms: _88  and  _91
REMARK   41  A    between atoms: _91  and  _92
REMARK   42  A    between atoms: _94  and  _96
REMARK   43  A    between atoms: _96  and  _97
REMARK   44  A    between atoms: _96  and  _99
REMARK   45  A    between atoms: _99  and  _100
REMARK   46  A    between atoms: _103  and  _105
REMARK   47  A    between atoms: _105  and  _106
REMARK   48  A    between atoms: _109  and  _111
REMARK   49  A    between atoms: _111  and  _112
REMARK   50  A    between atoms: _111  and  _114
REMARK   51  A    between atoms: _114  and  _115
REMARK   52  A    between atoms: _118  and  _120
REMARK   53  A    between atoms: _120  and  _121
REMARK   54  A    between atoms: _120  and  _123
REMARK   55  A    between atoms: _123  and  _124
REMARK   56  A    between atoms: _124  and  _125
REMARK   57  A    between atoms: _125  and  _126
REMARK   58  A    between atoms: _126  and  _127
REMARK   59  A    between atoms: _131  and  _133
REMARK   60  A    between atoms: _133  and  _134
REMARK   61  A    between atoms: _133  and  _136
REMARK   62  A    between atoms: _136  and  _137
REMARK   63  A    between atoms: _140  and  _142
REMARK   64  A    between atoms: _142  and  _143
REMARK   65  A    between atoms: _142  and  _145
REMARK   66  A    between atoms: _145  and  _146
REMARK   67  A    between atoms: _149  and  _151
REMARK   68  A    between atoms: _151  and  _152
REMARK   69  A    between atoms: _151  and  _154
REMARK   70  A    between atoms: _157  and  _159
REMARK   71  A    between atoms: _159  and  _160
REMARK   72  A    between atoms: _159  and  _162
REMARK   73  A    between atoms: _162  and  _163
REMARK   74  A    between atoms: _166  and  _168
REMARK   75  A    between atoms: _168  and  _169
REMARK   76  A    between atoms: _168  and  _171
REMARK   77  A    between atoms: _171  and  _172
REMARK   78  A    between atoms: _175  and  _177
REMARK   79  A    between atoms: _177  and  _178
REMARK   80  A    between atoms: _180  and  _182
REMARK   81  A    between atoms: _182  and  _183
REMARK   82  A    between atoms: _182  and  _185
REMARK   83  A    between atoms: _185  and  _186
REMARK   84  A    between atoms: _189  and  _191
REMARK   85  A    between atoms: _191  and  _192
REMARK   86  A    between atoms: _194  and  _196
REMARK   87  A    between atoms: _196  and  _197
REMARK   88  A    between atoms: _196  and  _199
REMARK   89  A    between atoms: _199  and  _200
REMARK   90  A    between atoms: _200  and  _201
REMARK   91  A    between atoms: _203  and  _205
REMARK   92  A    between atoms: _205  and  _206
REMARK   93  A    between atoms: _205  and  _208
REMARK   94  A    between atoms: _208  and  _209
REMARK   95  A    between atoms: _212  and  _214
REMARK   96  A    between atoms: _214  and  _215
REMARK   97  A    between atoms: _214  and  _217
REMARK   98  A    between atoms: _217  and  _218
REMARK   99  A    between atoms: _221  and  _223
REMARK  100  A    between atoms: _223  and  _224
REMARK  101  A    between atoms: _223  and  _226
REMARK  102  A    between atoms: _226  and  _227
REMARK  103  A    between atoms: _230  and  _232
REMARK  104  A    between atoms: _232  and  _233
REMARK  105  A    between atoms: _232  and  _235
REMARK  106  A    between atoms: _235  and  _236
REMARK  107  A    between atoms: _239  and  _241
REMARK  108  A    between atoms: _241  and  _242
REMARK  109  A    between atoms: _241  and  _244
REMARK  110  A    between atoms: _244  and  _245
REMARK  111  A    between atoms: _250  and  _252
REMARK  112  A    between atoms: _252  and  _253
REMARK  113  A    between atoms: _252  and  _255
REMARK  114  A    between atoms: _255  and  _256
REMARK  115  A    between atoms: _259  and  _261
REMARK  116  A    between atoms: _261  and  _262
REMARK  117  A    between atoms: _264  and  _266
REMARK  118  A    between atoms: _266  and  _267
REMARK  119  A    between atoms: _266  and  _269
REMARK  120  A    between atoms: _269  and  _270
REMARK  121  A    between atoms: _273  and  _275
REMARK  122  A    between atoms: _275  and  _276
REMARK  123  A    between atoms: _275  and  _278
REMARK  124  A    between atoms: _278  and  _279
REMARK  125  A    between atoms: _282  and  _284
REMARK  126  A    between atoms: _284  and  _285
REMARK  127  A    between atoms: _288  and  _290
REMARK  128  A    between atoms: _290  and  _291
REMARK  129  A    between atoms: _290  and  _293
REMARK  130  A    between atoms: _293  and  _294
REMARK  131  A    between atoms: _294  and  _295
REMARK  132  A    between atoms: _295  and  _296
REMARK  133  A    between atoms: _296  and  _297
REMARK  134  A    between atoms: _301  and  _303
REMARK  135  A    between atoms: _303  and  _304
REMARK  136  A    between atoms: _303  and  _306
REMARK  137  A    between atoms: _306  and  _307
REMARK  138  A    between atoms: _310  and  _312
REMARK  139  A    between atoms: _312  and  _313
REMARK  140  A    between atoms: _315  and  _317
REMARK  141  A    between atoms: _317  and  _318
REMARK  142  A    between atoms: _317  and  _320
REMARK  143  A    between atoms: _323  and  _325
REMARK  144  A    between atoms: _325  and  _326
REMARK  145  A    between atoms: _328  and  _330
REMARK  146  A    between atoms: _330  and  _331
REMARK  147  A    between atoms: _330  and  _333
REMARK  148  A    between atoms: _333  and  _334
REMARK  149  A    between atoms: _340  and  _342
REMARK  150  A    between atoms: _342  and  _343
REMARK  151  A    between atoms: _342  and  _345
REMARK  152  A    between atoms: _345  and  _346
REMARK  153  A    between atoms: _351  and  _352
REMARK  154  A    between atoms: _354  and  _356
REMARK  155  A    between atoms: _356  and  _357
REMARK  156  A    between atoms: _356  and  _359
REMARK  157  A    between atoms: _359  and  _360
REMARK  158  A    between atoms: _365  and  _366
REMARK  159  A    between atoms: _368  and  _370
REMARK  160  A    between atoms: _370  and  _371
REMARK  161  A    between atoms: _370  and  _373
REMARK  162  A    between atoms: _376  and  _378
REMARK  163  A    between atoms: _378  and  _379
REMARK  164  A    between atoms: _378  and  _381
REMARK  165  A    between atoms: _381  and  _382
REMARK  166  A    between atoms: _385  and  _387
REMARK  167  A    between atoms: _387  and  _388
REMARK  168  A    between atoms: _387  and  _390
REMARK  169  A    between atoms: _393  and  _395
REMARK  170  A    between atoms: _395  and  _396
REMARK  171  A    between atoms: _395  and  _398
REMARK  172  A    between atoms: _398  and  _399
REMARK  173  A    between atoms: _402  and  _404
REMARK  174  A    between atoms: _404  and  _405
REMARK  175  A    between atoms: _404  and  _407
REMARK  176  A    between atoms: _407  and  _408
REMARK  177  A    between atoms: _411  and  _413
REMARK  178  A    between atoms: _413  and  _414
REMARK  179  A    between atoms: _413  and  _416
REMARK  180  A    between atoms: _416  and  _417
REMARK  181  A    between atoms: _417  and  _418
REMARK  182  A    between atoms: _418  and  _419
REMARK  183  A    between atoms: _419  and  _420
REMARK  184  A    between atoms: _424  and  _426
REMARK  185  A    between atoms: _426  and  _427
REMARK  186  A    between atoms: _426  and  _429
REMARK  187  A    between atoms: _429  and  _430
REMARK  188  A    between atoms: _435  and  _437
REMARK  189  A    between atoms: _437  and  _438
REMARK  190  A    between atoms: _441  and  _443
REMARK  191  A    between atoms: _443  and  _444
REMARK  192  A    between atoms: _443  and  _446
REMARK  193  A    between atoms: _446  and  _447
REMARK  194  A    between atoms: _457  and  _459
REMARK  195  A    between atoms: _459  and  _460
REMARK  196  A    between atoms: _459  and  _462
REMARK  197  A    between atoms: _462  and  _463
REMARK  198  A    between atoms: _463  and  _464
REMARK  199  A    between atoms: _467  and  _469
REMARK  200  A    between atoms: _469  and  _470
REMARK  201  A    between atoms: _469  and  _472
REMARK  202  A    between atoms: _472  and  _473
REMARK  203  A    between atoms: _475  and  _477
REMARK  204  A    between atoms: _477  and  _478
REMARK  205  A    between atoms: _477  and  _480
REMARK  206  A    between atoms: _480  and  _481
REMARK  207  A    between atoms: _487  and  _489
REMARK  208  A    between atoms: _489  and  _490
REMARK  209  A    between atoms: _489  and  _492
REMARK  210  A    between atoms: _492  and  _493
REMARK  211  A    between atoms: _496  and  _498
REMARK  212  A    between atoms: _498  and  _499
REMARK  213  A    between atoms: _498  and  _501
REMARK  214  A    between atoms: _504  and  _506
REMARK  215  A    between atoms: _506  and  _507
REMARK  216  A    between atoms: _509  and  _511
REMARK  217  A    between atoms: _511  and  _512
REMARK  218  A    between atoms: _511  and  _514
REMARK  219  A    between atoms: _514  and  _515
REMARK  220  A    between atoms: _518  and  _520
REMARK  221  A    between atoms: _520  and  _521
REMARK  222  A    between atoms: _520  and  _523
REMARK  223  A    between atoms: _523  and  _524
REMARK  224  A    between atoms: _524  and  _525
REMARK  225  A    between atoms: _525  and  _526
REMARK  226  A    between atoms: _526  and  _527
REMARK  227  A    between atoms: _531  and  _533
REMARK  228  A    between atoms: _533  and  _534
REMARK  229  A    between atoms: _533  and  _536
REMARK  230  A    between atoms: _539  and  _541
REMARK  231  A    between atoms: _541  and  _542
REMARK  232  A    between atoms: _541  and  _544
REMARK  233  A    between atoms: _544  and  _545
REMARK  234  A    between atoms: _550  and  _551
REMARK                            x       y       z     vdW  Elec       q    Type
REMARK                         _______ _______ _______ _____ _____    ______ ____
ROOT
ATOM      1  CA  LEU A   2       7.130  14.641  30.972  0.00  0.00    +0.149 C 
ENDROOT
BRANCH   1   3
ATOM      2  C   ASP A   1       7.264  12.225  31.439  0.00  0.00    +0.239 C 
ATOM      3  N   LEU A   2       6.818  13.444  31.758  0.00  0.00    -0.297 N 
ATOM      4  H   LEU A   2       6.222  13.548  32.604  0.00  0.00    +0.150 HD
ATOM      5  O   ASP A   1       8.063  12.006  30.520  0.00  0.00    -0.274 OA
BRANCH   2   6
ATOM      6  CA  ASP A   1       6.703  11.078  32.272  0.00  0.00    +0.156 C 
BRANCH   6   7
ATOM      7  N   ASP A   1       6.846  11.376  33.703  0.00  0.00    -0.238 NA
ATOM      8  H   ASP A   1       6.002  11.381  34.310  0.00  0.00    +0.142 HD
ENDBRANCH   6   7
BRANCH   6   9
ATOM      9  CB  ASP A   1       5.228  10.919  31.885  0.00  0.00    +0.140 C 
BRANCH   9  10
ATOM     10  CG  ASP A   1       4.622   9.596  32.319  0.00  0.00    +0.367 C 
ATOM     11  OD2 ASP A   1       3.395   9.589  32.514  0.00  0.00    -0.246 OA
ATOM     12  OD1 ASP A   1       5.331   8.574  32.448  0.00  0.00    -0.246 OA
ENDBRANCH   9  10
ENDBRANCH   6   9
ENDBRANCH   2   6
ENDBRANCH   1   3
BRANCH   1  13
ATOM     13  C   LEU A   2       8.604  15.013  31.009  0.00  0.00    +0.241 C 
ATOM     14  N   ILE A   3       9.209  14.876  32.182  0.00  0.00    -0.298 N 
ATOM     15  H   ILE A   3       8.679  14.489  32.989  0.00  0.00    +0.150 HD
ATOM     16  O   LEU A   2       9.177  15.419  29.995  0.00  0.00    -0.273 OA
BRANCH  14  17
ATOM     17  CA  ILE A   3      10.604  15.259  32.356  0.00  0.00    +0.137 C 
BRANCH  17  18
ATOM     18  CB  ILE A   3      10.875  15.753  33.788  0.00  0.00    +0.026 C 
ATOM     19  CG2 ILE A   3      12.363  16.048  33.984  0.00  0.00    +0.002 C 
BRANCH  18  20
ATOM     20  CG1 ILE A   3      10.018  16.995  34.063  0.00  0.00    +0.002 C 
ATOM     21  CD1 ILE A   3       9.986  17.429  35.513  0.00  0.00    +0.000 C 
ENDBRANCH  18  20
ENDBRANCH  17  18
BRANCH  17  22
ATOM     22  C   ILE A   3      11.568  14.142  31.967  0.00  0.00    +0.227 C 
ATOM     23  O   ILE A   3      12.530  14.387  31.233  0.00  0.00    -0.286 OA
ENDBRANCH  17  22
ENDBRANCH  14  17
ENDBRANCH   1  13
BRANCH   1  24
ATOM     24  CB  LEU A   2       6.286  15.830  31.449  0.00  0.00    +0.029 C 
BRANCH  24  25
ATOM     25  CG  LEU A   2       4.775  15.765  31.216  0.00  0.00    +0.002 C 
ATOM     26  CD2 LEU A   2       4.135  16.967  31.878  0.00  0.00    +0.000 C 
ATOM     27  CD1 LEU A   2       4.424  15.754  29.735  0.00  0.00    +0.000 C 
ENDBRANCH  24  25
ENDBRANCH   1  24
TORSDOF 12
REMARK  Name = ../refined-set-2016/4cwn/4cwn_pocket.pdb
REMARK  234 active torsions:
REMARK  status: ('A' for Active; 'I' for Inactive)
REMARK    1  A    between atoms: _1  and  _3
REMARK    2  A    between atoms: _3  and  _4
REMARK    3  A    between atoms: _3  and  _6
REMARK    4  A    between atoms: _6  and  _7
REMARK    5  A    between atoms: _13  and  _15
REMARK    6  A    between atoms: _15  and  _16
REMARK    7  A    between atoms: _15  and  _18
REMARK    8  A    between atoms: _18  and  _19
REMARK    9  A    between atoms: _22  and  _24
REMARK   10  A    between atoms: _24  and  _25
REMARK   11  A    between atoms: _24  and  _27
REMARK   12  A    between atoms: _27  and  _28
REMARK   13  A    between atoms: _31  and  _33
REMARK   14  A    between atoms: _33  and  _34
REMARK   15  A    between atoms: _33  and  _36
REMARK   16  A    between atoms: _36  and  _37
REMARK   17  A    between atoms: _37  and  _38
REMARK   18  A    between atoms: _41  and  _43
REMARK   19  A    between atoms: _43  and  _44
REMARK   20  A    between atoms: _43  and  _46
REMARK   21  A    between atoms: _46  and  _47
REMARK   22  A    between atoms: _50  and  _52
REMARK   23  A    between atoms: _52  and  _53
REMARK   24  A    between atoms: _52  and  _55
REMARK   25  A    between atoms: _55  and  _56
REMARK   26  A    between atoms: _59  and  _61
REMARK   27  A    between atoms: _61  and  _62
REMARK   28  A    between atoms: _61  and  _64
REMARK   29  A    between atoms: _64  and  _65
REMARK   30  A    between atoms: _67  and  _69
REMARK   31  A    between atoms: _69  and  _70
REMARK   32  A    between atoms: _69  and  _72
REMARK   33  A    between atoms: _72  and  _73
REMARK   34  A    between atoms: _78  and  _80
REMARK   35  A    between atoms: _80  and  _81
REMARK   36  A    between atoms: _80  and  _83
REMARK   37  A    between atoms: _83  and  _84
REMARK   38  A    between atoms: _86  and  _88
REMARK   39  A    between atoms: _88  and  _89
REMARK   40  A    between atoms: _88  and  _91
REMARK   41  A    between atoms: _91  and  _92
REMARK   42  A    between atoms: _94  and  _96
REMARK   43  A    between atoms: _96  and  _97
REMARK   44  A    between atoms: _96  and  _99
REMARK   45  A    between atoms: _99  and  _100
REMARK   46  A    between atoms: _103  and  _105
REMARK   47  A    between atoms: _105  and  _106
REMARK   48  A    between atoms: _109  and  _111
REMARK   49  A    between atoms: _111  and  _112
REMARK   50  A    between atoms: _111  and  _114
REMARK   51  A    between atoms: _114  and  _115
REMARK   52  A    between atoms: _118  and  _120
REMARK   53  A    between atoms: _120  and  _121
REMARK   54  A    between atoms: _120  and  _123
REMARK   55  A    between atoms: _123  and  _124
REMARK   56  A    between atoms: _124  and  _125
REMARK   57  A    between atoms: _125  and  _126
REMARK   58  A    between atoms: _126  and  _127
REMARK   59  A    between atoms: _131  and  _133
REMARK   60  A    between atoms: _133  and  _134
REMARK   61  A    between atoms: _133  and  _136
REMARK   62  A    between atoms: _136  and  _137
REMARK   63  A    between atoms: _140  and  _142
REMARK   64  A    between atoms: _142  and  _143
REMARK   65  A    between atoms: _142  and  _145
REMARK   66  A    between atoms: _145  and  _146
REMARK   67  A    between atoms: _149  and  _151
REMARK   68  A    between atoms: _151  and  _152
REMARK   69  A    between atoms: _151  and  _154
REMARK   70  A    between atoms: _157  and  _159
REMARK   71  A    between atoms: _159  and  _160
REMARK   72  A    between atoms: _159  and  _162
REMARK   73  A    between atoms: _162  and  _163
REMARK   74  A    between atoms: _166  and  _168
REMARK   75  A    between atoms: _168  and  _169
REMARK   76  A    between atoms: _168  and  _171
REMARK   77  A    between atoms: _171  and  _172
REMARK   78  A    between atoms: _175  and  _177
REMARK   79  A    between atoms: _177  and  _178
REMARK   80  A    between atoms: _180  and  _182
REMARK   81  A    between atoms: _182  and  _183
REMARK   82  A    between atoms: _182  and  _185
REMARK   83  A    between atoms: _185  and  _186
REMARK   84  A    between atoms: _189  and  _191
REMARK   85  A    between atoms: _191  and  _192
REMARK   86  A    between atoms: _194  and  _196
REMARK   87  A    between atoms: _196  and  _197
REMARK   88  A    between atoms: _196  and  _199
REMARK   89  A    between atoms: _199  and  _200
REMARK   90  A    between atoms: _200  and  _201
REMARK   91  A    between atoms: _203  and  _205
REMARK   92  A    between atoms: _205  and  _206
REMARK   93  A    between atoms: _205  and  _208
REMARK   94  A    between atoms: _208  and  _209
REMARK   95  A    between atoms: _212  and  _214
REMARK   96  A    between atoms: _214  and  _215
REMARK   97  A    between atoms: _214  and  _217
REMARK   98  A    between atoms: _217  and  _218
REMARK   99  A    between atoms: _221  and  _223
REMARK  100  A    between atoms: _223  and  _224
REMARK  101  A    between atoms: _223  and  _226
REMARK  102  A    between atoms: _226  and  _227
REMARK  103  A    between atoms: _230  and  _232
REMARK  104  A    between atoms: _232  and  _233
REMARK  105  A    between atoms: _232  and  _235
REMARK  106  A    between atoms: _235  and  _236
REMARK  107  A    between atoms: _239  and  _241
REMARK  108  A    between atoms: _241  and  _242
REMARK  109  A    between atoms: _241  and  _244
REMARK  110  A    between atoms: _244  and  _245
REMARK  111  A    between atoms: _250  and  _252
REMARK  112  A    between atoms: _252  and  _253
REMARK  113  A    between atoms: _252  and  _255
REMARK  114  A    between atoms: _255  and  _256
REMARK  115  A    between atoms: _259  and  _261
REMARK  116  A    between atoms: _261  and  _262
REMARK  117  A    between atoms: _264  and  _266
REMARK  118  A    between atoms: _266  and  _267
REMARK  119  A    between atoms: _266  and  _269
REMARK  120  A    between atoms: _269  and  _270
REMARK  121  A    between atoms: _273  and  _275
REMARK  122  A    between atoms: _275  and  _276
REMARK  123  A    between atoms: _275  and  _278
REMARK  124  A    between atoms: _278  and  _279
REMARK  125  A    between atoms: _282  and  _284
REMARK  126  A    between atoms: _284  and  _285
REMARK  127  A    between atoms: _288  and  _290
REMARK  128  A    between atoms: _290  and  _291
REMARK  129  A    between atoms: _290  and  _293
REMARK  130  A    between atoms: _293  and  _294
REMARK  131  A    between atoms: _294  and  _295
REMARK  132  A    between atoms: _295  and  _296
REMARK  133  A    between atoms: _296  and  _297
REMARK  134  A    between atoms: _301  and  _303
REMARK  135  A    between atoms: _303  and  _304
REMARK  136  A    between atoms: _303  and  _306
REMARK  137  A    between atoms: _306  and  _307
REMARK  138  A    between atoms: _310  and  _312
REMARK  139  A    between atoms: _312  and  _313
REMARK  140  A    between atoms: _315  and  _317
REMARK  141  A    between atoms: _317  and  _318
REMARK  142  A    between atoms: _317  and  _320
REMARK  143  A    between atoms: _323  and  _325
REMARK  144  A    between atoms: _325  and  _326
REMARK  145  A    between atoms: _328  and  _330
REMARK  146  A    between atoms: _330  and  _331
REMARK  147  A    between atoms: _330  and  _333
REMARK  148  A    between atoms: _333  and  _334
REMARK  149  A    between atoms: _340  and  _342
REMARK  150  A    between atoms: _342  and  _343
REMARK  151  A    between atoms: _342  and  _345
REMARK  152  A    between atoms: _345  and  _346
REMARK  153  A    between atoms: _351  and  _352
REMARK  154  A    between atoms: _354  and  _356
REMARK  155  A    between atoms: _356  and  _357
REMARK  156  A    between atoms: _356  and  _359
REMARK  157  A    between atoms: _359  and  _360
REMARK  158  A    between atoms: _365  and  _366
REMARK  159  A    between atoms: _368  and  _370
REMARK  160  A    between atoms: _370  and  _371
REMARK  161  A    between atoms: _370  and  _373
REMARK  162  A    between atoms: _376  and  _378
REMARK  163  A    between atoms: _378  and  _379
REMARK  164  A    between atoms: _378  and  _381
REMARK  165  A    between atoms: _381  and  _382
REMARK  166  A    between atoms: _385  and  _387
REMARK  167  A    between atoms: _387  and  _388
REMARK  168  A    between atoms: _387  and  _390
REMARK  169  A    between atoms: _393  and  _395
REMARK  170  A    between atoms: _395  and  _396
REMARK  171  A    between atoms: _395  and  _398
REMARK  172  A    between atoms: _398  and  _399
REMARK  173  A    between atoms: _402  and  _404
REMARK  174  A    between atoms: _404  and  _405
REMARK  175  A    between atoms: _404  and  _407
REMARK  176  A    between atoms: _407  and  _408
REMARK  177  A    between atoms: _411  and  _413
REMARK  178  A    between atoms: _413  and  _414
REMARK  179  A    between atoms: _413  and  _416
REMARK  180  A    between atoms: _416  and  _417
REMARK  181  A    between atoms: _417  and  _418
REMARK  182  A    between atoms: _418  and  _419
REMARK  183  A    between atoms: _419  and  _420
REMARK  184  A    between atoms: _424  and  _426
REMARK  185  A    between atoms: _426  and  _427
REMARK  186  A    between atoms: _426  and  _429
REMARK  187  A    between atoms: _429  and  _430
REMARK  188  A    between atoms: _435  and  _437
REMARK  189  A    between atoms: _437  and  _438
REMARK  190  A    between atoms: _441  and  _443
REMARK  191  A    between atoms: _443  and  _444
REMARK  192  A    between atoms: _443  and  _446
REMARK  193  A    between atoms: _446  and  _447
REMARK  194  A    between atoms: _457  and  _459
REMARK  195  A    between atoms: _459  and  _460
REMARK  196  A    between atoms: _459  and  _462
REMARK  197  A    between atoms: _462  and  _463
REMARK  198  A    between atoms: _463  and  _464
REMARK  199  A    between atoms: _467  and  _469
REMARK  200  A    between atoms: _469  and  _470
REMARK  201  A    between atoms: _469  and  _472
REMARK  202  A    between atoms: _472  and  _473
REMARK  203  A    between atoms: _475  and  _477
REMARK  204  A    between atoms: _477  and  _478
REMARK  205  A    between atoms: _477  and  _480
REMARK  206  A    between atoms: _480  and  _481
REMARK  207  A    between atoms: _487  and  _489
REMARK  208  A    between atoms: _489  and  _490
REMARK  209  A    between atoms: _489  and  _492
REMARK  210  A    between atoms: _492  and  _493
REMARK  211  A    between atoms: _496  and  _498
REMARK  212  A    between atoms: _498  and  _499
REMARK  213  A    between atoms: _498  and  _501
REMARK  214  A    between atoms: _504  and  _506
REMARK  215  A    between atoms: _506  and  _507
REMARK  216  A    between atoms: _509  and  _511
REMARK  217  A    between atoms: _511  and  _512
REMARK  218  A    between atoms: _511  and  _514
REMARK  219  A    between atoms: _514  and  _515
REMARK  220  A    between atoms: _518  and  _520
REMARK  221  A    between atoms: _520  and  _521
REMARK  222  A    between atoms: _520  and  _523
REMARK  223  A    between atoms: _523  and  _524
REMARK  224  A    between atoms: _524  and  _525
REMARK  225  A    between atoms: _525  and  _526
REMARK  226  A    between atoms: _526  and  _527
REMARK  227  A    between atoms: _531  and  _533
REMARK  228  A    between atoms: _533  and  _534
REMARK  229  A    between atoms: _533  and  _536
REMARK  230  A    between atoms: _539  and  _541
REMARK  231  A    between atoms: _541  and  _542
REMARK  232  A    between atoms: _541  and  _544
REMARK  233  A    between atoms: _544  and  _545
REMARK  234  A    between atoms: _550  and  _551
REMARK                            x       y       z     vdW  Elec       q    Type
REMARK                         _______ _______ _______ _____ _____    ______ ____
ROOT
ATOM      1  CA  THR A   4      14.201   7.699  28.095  0.00  0.00    +0.176 C 
ENDROOT
BRANCH   1   3
ATOM      2  C   GLY A   3      13.405   9.634  26.813  0.00  0.00    +0.243 C 
ATOM      3  N   THR A   4      13.401   8.919  27.939  0.00  0.00    -0.295 N 
ATOM      4  H   THR A   4      12.810   9.237  28.734  0.00  0.00    +0.150 HD
ATOM      5  O   GLY A   3      14.108   9.358  25.833  0.00  0.00    -0.273 OA
BRANCH   2   6
ATOM      6  CA  GLY A   3      12.492  10.849  26.778  0.00  0.00    +0.176 C 
BRANCH   6   8
ATOM      7  C   LEU A   2      10.340   9.704  26.995  0.00  0.00    +0.241 C 
ATOM      8  N   GLY A   3      11.212  10.606  27.440  0.00  0.00    -0.295 N 
ATOM      9  H   GLY A   3      10.974  11.157  28.289  0.00  0.00    +0.150 HD
ATOM     10  O   LEU A   2      10.504   9.043  25.968  0.00  0.00    -0.273 OA
BRANCH   7  11
ATOM     11  CA  LEU A   2       9.088   9.521  27.835  0.00  0.00    +0.149 C 
BRANCH  11  13
ATOM     12  C   ASN A   1      10.145   8.610  29.825  0.00  0.00    +0.239 C 
ATOM     13  N   LEU A   2       9.397   9.558  29.262  0.00  0.00    -0.297 N 
ATOM     14  H   LEU A   2       9.028  10.335  29.847  0.00  0.00    +0.150 HD
ATOM     15  O   ASN A   1      10.652   7.690  29.188  0.00  0.00    -0.274 OA
BRANCH  12  16
ATOM     16  CA  ASN A   1      10.314   8.680  31.333  0.00  0.00    +0.154 C 
BRANCH  16  17
ATOM     17  N   ASN A   1      10.683  10.013  31.837  0.00  0.00    -0.238 NA
ATOM     18  H   ASN A   1      10.045  10.494  32.503  0.00  0.00    +0.142 HD
ENDBRANCH  16  17
BRANCH  16  19
ATOM     19  CB  ASN A   1       9.013   8.146  31.967  0.00  0.00    +0.111 C 
BRANCH  19  20
ATOM     20  CG  ASN A   1       9.076   8.006  33.477  0.00  0.00    +0.221 C 
ATOM     21  ND2 ASN A   1       7.894   7.977  34.101  0.00  0.00    -0.329 N 
ATOM     22 HD21 ASN A   1       7.854   7.869  35.135  0.00  0.00    +0.145 HD
ATOM     23 HD22 ASN A   1       7.014   8.062  33.553  0.00  0.00    +0.145 HD
ATOM     24  OD1 ASN A   1      10.147   7.909  34.079  0.00  0.00    -0.275 OA
ENDBRANCH  19  20
ENDBRANCH  16  19
ENDBRANCH  12  16
ENDBRANCH  11  13
BRANCH  11  25
ATOM     25  CB  LEU A   2       8.039  10.566  27.464  0.00  0.00    +0.029 C 
BRANCH  25  26
ATOM     26  CG  LEU A   2       6.670  10.384  28.124  0.00  0.00    +0.002 C 
ATOM     27  CD2 LEU A   2       5.831  11.616  27.850  0.00  0.00    +0.000 C 
ATOM     28  CD1 LEU A   2       5.985   9.126  27.619  0.00  0.00    +0.000 C 
ENDBRANCH  25  26
ENDBRANCH  11  25
ENDBRANCH   7  11
ENDBRANCH   6   8
ENDBRANCH   2   6
ENDBRANCH   1   3
BRANCH   1  29
ATOM     29  C   THR A   4      13.772   6.644  27.085  0.00  0.00    +0.243 C 
ATOM     30  N   ILE A   5      12.465   6.399  27.004  0.00  0.00    -0.297 N 
ATOM     31  H   ILE A   5      11.812   6.904  27.637  0.00  0.00    +0.150 HD
ATOM     32  O   THR A   4      14.610   6.072  26.381  0.00  0.00    -0.273 OA
BRANCH  30  33
ATOM     33  CA  ILE A   5      11.931   5.436  26.045  0.00  0.00    +0.149 C 
BRANCH  33  34
ATOM     34  C   ILE A   5      12.215   5.899  24.619  0.00  0.00    +0.241 C 
ATOM     35  N   ALA A   6      12.032   7.196  24.360  0.00  0.00    -0.297 N 
ATOM     36  H   ALA A   6      11.758   7.828  25.139  0.00  0.00    +0.150 HD
ATOM     37  O   ILE A   5      12.629   5.095  23.778  0.00  0.00    -0.273 OA
BRANCH  35  38
ATOM     38  CA  ALA A   6      12.202   7.762  23.020  0.00  0.00    +0.149 C 
ATOM     39  CB  ALA A   6      11.731   9.210  22.983  0.00  0.00    +0.031 C 
BRANCH  38  40
ATOM     40  C   ALA A   6      13.632   7.648  22.466  0.00  0.00    +0.241 C 
ATOM     41  N   LYS A   7      14.632   7.595  23.347  0.00  0.00    -0.298 N 
ATOM     42  H   LYS A   7      14.419   7.616  24.365  0.00  0.00    +0.150 HD
ATOM     43  O   ALA A   6      13.817   7.613  21.250  0.00  0.00    -0.273 OA
BRANCH  41  44
ATOM     44  CA  LYS A   7      16.027   7.507  22.905  0.00  0.00    +0.137 C 
BRANCH  44  45
ATOM     45  C   LYS A   7      16.296   6.322  21.967  0.00  0.00    +0.227 C 
ATOM     46  O   LYS A   7      16.867   6.503  20.888  0.00  0.00    -0.286 OA
ENDBRANCH  44  45
BRANCH  44  47
ATOM     47  CB  LYS A   7      16.986   7.486  24.103  0.00  0.00    +0.028 C 
BRANCH  47  48
ATOM     48  CG  LYS A   7      18.351   8.079  23.796  0.00  0.00    -0.000 C 
BRANCH  48  49
ATOM     49  CD  LYS A   7      19.205   8.185  25.050  0.00  0.00    -0.024 C 
BRANCH  49  50
ATOM     50  CE  LYS A   7      20.394   7.246  25.010  0.00  0.00    -0.086 C 
BRANCH  50  51
ATOM     51  NZ  LYS A   7      21.473   7.788  24.138  0.00  0.00    +0.380 N 
ATOM     52  HZ1 LYS A   7      21.786   8.708  24.508  0.00  0.00    -0.089 HD
ATOM     53  HZ2 LYS A   7      22.275   7.126  24.128  0.00  0.00    -0.089 HD
ATOM     54  HZ3 LYS A   7      21.109   7.907  23.171  0.00  0.00    -0.089 HD
ENDBRANCH  50  51
ENDBRANCH  49  50
ENDBRANCH  48  49
ENDBRANCH  47  48
ENDBRANCH  44  47
ENDBRANCH  41  44
ENDBRANCH  38  40
ENDBRANCH  35  38
ENDBRANCH  33  34
BRANCH  33  55
ATOM     55  CB  ILE A   5      10.421   5.172  26.266  0.00  0.00    +0.027 C 
ATOM     56  CG2 ILE A   5       9.885   4.172  25.245  0.00  0.00    +0.002 C 
BRANCH  55  57
ATOM     57  CG1 ILE A   5      10.187   4.640  27.681  0.00  0.00    +0.002 C 
ATOM     58  CD1 ILE A   5       8.771   4.815  28.189  0.00  0.00    +0.000 C 
ENDBRANCH  55  57
ENDBRANCH  33  55
ENDBRANCH  30  33
ENDBRANCH   1  29
BRANCH   1  59
ATOM     59  CB  THR A   4      14.106   7.118  29.526  0.00  0.00    +0.137 C 
ATOM     60  CG2 THR A   4      14.929   5.838  29.660  0.00  0.00    +0.034 C 
BRANCH  59  61
ATOM     61  OG1 THR A   4      14.597   8.081  30.460  0.00  0.00    -0.382 OA
ATOM     62  HG1 THR A   4      14.052   8.905  30.399  0.00  0.00    +0.210 HD
ENDBRANCH  59  61
ENDBRANCH   1  59
TORSDOF 27
REMARK  Name = ../refined-set-2016/4cwn/4cwn_pocket.pdb
REMARK  234 active torsions:
REMARK  status: ('A' for Active; 'I' for Inactive)
REMARK    1  A    between atoms: _1  and  _3
REMARK    2  A    between atoms: _3  and  _4
REMARK    3  A    between atoms: _3  and  _6
REMARK    4  A    between atoms: _6  and  _7
REMARK    5  A    between atoms: _13  and  _15
REMARK    6  A    between atoms: _15  and  _16
REMARK    7  A    between atoms: _15  and  _18
REMARK    8  A    between atoms: _18  and  _19
REMARK    9  A    between atoms: _22  and  _24
REMARK   10  A    between atoms: _24  and  _25
REMARK   11  A    between atoms: _24  and  _27
REMARK   12  A    between atoms: _27  and  _28
REMARK   13  A    between atoms: _31  and  _33
REMARK   14  A    between atoms: _33  and  _34
REMARK   15  A    between atoms: _33  and  _36
REMARK   16  A    between atoms: _36  and  _37
REMARK   17  A    between atoms: _37  and  _38
REMARK   18  A    between atoms: _41  and  _43
REMARK   19  A    between atoms: _43  and  _44
REMARK   20  A    between atoms: _43  and  _46
REMARK   21  A    between atoms: _46  and  _47
REMARK   22  A    between atoms: _50  and  _52
REMARK   23  A    between atoms: _52  and  _53
REMARK   24  A    between atoms: _52  and  _55
REMARK   25  A    between atoms: _55  and  _56
REMARK   26  A    between atoms: _59  and  _61
REMARK   27  A    between atoms: _61  and  _62
REMARK   28  A    between atoms: _61  and  _64
REMARK   29  A    between atoms: _64  and  _65
REMARK   30  A    between atoms: _67  and  _69
REMARK   31  A    between atoms: _69  and  _70
REMARK   32  A    between atoms: _69  and  _72
REMARK   33  A    between atoms: _72  and  _73
REMARK   34  A    between atoms: _78  and  _80
REMARK   35  A    between atoms: _80  and  _81
REMARK   36  A    between atoms: _80  and  _83
REMARK   37  A    between atoms: _83  and  _84
REMARK   38  A    between atoms: _86  and  _88
REMARK   39  A    between atoms: _88  and  _89
REMARK   40  A    between atoms: _88  and  _91
REMARK   41  A    between atoms: _91  and  _92
REMARK   42  A    between atoms: _94  and  _96
REMARK   43  A    between atoms: _96  and  _97
REMARK   44  A    between atoms: _96  and  _99
REMARK   45  A    between atoms: _99  and  _100
REMARK   46  A    between atoms: _103  and  _105
REMARK   47  A    between atoms: _105  and  _106
REMARK   48  A    between atoms: _109  and  _111
REMARK   49  A    between atoms: _111  and  _112
REMARK   50  A    between atoms: _111  and  _114
REMARK   51  A    between atoms: _114  and  _115
REMARK   52  A    between atoms: _118  and  _120
REMARK   53  A    between atoms: _120  and  _121
REMARK   54  A    between atoms: _120  and  _123
REMARK   55  A    between atoms: _123  and  _124
REMARK   56  A    between atoms: _124  and  _125
REMARK   57  A    between atoms: _125  and  _126
REMARK   58  A    between atoms: _126  and  _127
REMARK   59  A    between atoms: _131  and  _133
REMARK   60  A    between atoms: _133  and  _134
REMARK   61  A    between atoms: _133  and  _136
REMARK   62  A    between atoms: _136  and  _137
REMARK   63  A    between atoms: _140  and  _142
REMARK   64  A    between atoms: _142  and  _143
REMARK   65  A    between atoms: _142  and  _145
REMARK   66  A    between atoms: _145  and  _146
REMARK   67  A    between atoms: _149  and  _151
REMARK   68  A    between atoms: _151  and  _152
REMARK   69  A    between atoms: _151  and  _154
REMARK   70  A    between atoms: _157  and  _159
REMARK   71  A    between atoms: _159  and  _160
REMARK   72  A    between atoms: _159  and  _162
REMARK   73  A    between atoms: _162  and  _163
REMARK   74  A    between atoms: _166  and  _168
REMARK   75  A    between atoms: _168  and  _169
REMARK   76  A    between atoms: _168  and  _171
REMARK   77  A    between atoms: _171  and  _172
REMARK   78  A    between atoms: _175  and  _177
REMARK   79  A    between atoms: _177  and  _178
REMARK   80  A    between atoms: _180  and  _182
REMARK   81  A    between atoms: _182  and  _183
REMARK   82  A    between atoms: _182  and  _185
REMARK   83  A    between atoms: _185  and  _186
REMARK   84  A    between atoms: _189  and  _191
REMARK   85  A    between atoms: _191  and  _192
REMARK   86  A    between atoms: _194  and  _196
REMARK   87  A    between atoms: _196  and  _197
REMARK   88  A    between atoms: _196  and  _199
REMARK   89  A    between atoms: _199  and  _200
REMARK   90  A    between atoms: _200  and  _201
REMARK   91  A    between atoms: _203  and  _205
REMARK   92  A    between atoms: _205  and  _206
REMARK   93  A    between atoms: _205  and  _208
REMARK   94  A    between atoms: _208  and  _209
REMARK   95  A    between atoms: _212  and  _214
REMARK   96  A    between atoms: _214  and  _215
REMARK   97  A    between atoms: _214  and  _217
REMARK   98  A    between atoms: _217  and  _218
REMARK   99  A    between atoms: _221  and  _223
REMARK  100  A    between atoms: _223  and  _224
REMARK  101  A    between atoms: _223  and  _226
REMARK  102  A    between atoms: _226  and  _227
REMARK  103  A    between atoms: _230  and  _232
REMARK  104  A    between atoms: _232  and  _233
REMARK  105  A    between atoms: _232  and  _235
REMARK  106  A    between atoms: _235  and  _236
REMARK  107  A    between atoms: _239  and  _241
REMARK  108  A    between atoms: _241  and  _242
REMARK  109  A    between atoms: _241  and  _244
REMARK  110  A    between atoms: _244  and  _245
REMARK  111  A    between atoms: _250  and  _252
REMARK  112  A    between atoms: _252  and  _253
REMARK  113  A    between atoms: _252  and  _255
REMARK  114  A    between atoms: _255  and  _256
REMARK  115  A    between atoms: _259  and  _261
REMARK  116  A    between atoms: _261  and  _262
REMARK  117  A    between atoms: _264  and  _266
REMARK  118  A    between atoms: _266  and  _267
REMARK  119  A    between atoms: _266  and  _269
REMARK  120  A    between atoms: _269  and  _270
REMARK  121  A    between atoms: _273  and  _275
REMARK  122  A    between atoms: _275  and  _276
REMARK  123  A    between atoms: _275  and  _278
REMARK  124  A    between atoms: _278  and  _279
REMARK  125  A    between atoms: _282  and  _284
REMARK  126  A    between atoms: _284  and  _285
REMARK  127  A    between atoms: _288  and  _290
REMARK  128  A    between atoms: _290  and  _291
REMARK  129  A    between atoms: _290  and  _293
REMARK  130  A    between atoms: _293  and  _294
REMARK  131  A    between atoms: _294  and  _295
REMARK  132  A    between atoms: _295  and  _296
REMARK  133  A    between atoms: _296  and  _297
REMARK  134  A    between atoms: _301  and  _303
REMARK  135  A    between atoms: _303  and  _304
REMARK  136  A    between atoms: _303  and  _306
REMARK  137  A    between atoms: _306  and  _307
REMARK  138  A    between atoms: _310  and  _312
REMARK  139  A    between atoms: _312  and  _313
REMARK  140  A    between atoms: _315  and  _317
REMARK  141  A    between atoms: _317  and  _318
REMARK  142  A    between atoms: _317  and  _320
REMARK  143  A    between atoms: _323  and  _325
REMARK  144  A    between atoms: _325  and  _326
REMARK  145  A    between atoms: _328  and  _330
REMARK  146  A    between atoms: _330  and  _331
REMARK  147  A    between atoms: _330  and  _333
REMARK  148  A    between atoms: _333  and  _334
REMARK  149  A    between atoms: _340  and  _342
REMARK  150  A    between atoms: _342  and  _343
REMARK  151  A    between atoms: _342  and  _345
REMARK  152  A    between atoms: _345  and  _346
REMARK  153  A    between atoms: _351  and  _352
REMARK  154  A    between atoms: _354  and  _356
REMARK  155  A    between atoms: _356  and  _357
REMARK  156  A    between atoms: _356  and  _359
REMARK  157  A    between atoms: _359  and  _360
REMARK  158  A    between atoms: _365  and  _366
REMARK  159  A    between atoms: _368  and  _370
REMARK  160  A    between atoms: _370  and  _371
REMARK  161  A    between atoms: _370  and  _373
REMARK  162  A    between atoms: _376  and  _378
REMARK  163  A    between atoms: _378  and  _379
REMARK  164  A    between atoms: _378  and  _381
REMARK  165  A    between atoms: _381  and  _382
REMARK  166  A    between atoms: _385  and  _387
REMARK  167  A    between atoms: _387  and  _388
REMARK  168  A    between atoms: _387  and  _390
REMARK  169  A    between atoms: _393  and  _395
REMARK  170  A    between atoms: _395  and  _396
REMARK  171  A    between atoms: _395  and  _398
REMARK  172  A    between atoms: _398  and  _399
REMARK  173  A    between atoms: _402  and  _404
REMARK  174  A    between atoms: _404  and  _405
REMARK  175  A    between atoms: _404  and  _407
REMARK  176  A    between atoms: _407  and  _408
REMARK  177  A    between atoms: _411  and  _413
REMARK  178  A    between atoms: _413  and  _414
REMARK  179  A    between atoms: _413  and  _416
REMARK  180  A    between atoms: _416  and  _417
REMARK  181  A    between atoms: _417  and  _418
REMARK  182  A    between atoms: _418  and  _419
REMARK  183  A    between atoms: _419  and  _420
REMARK  184  A    between atoms: _424  and  _426
REMARK  185  A    between atoms: _426  and  _427
REMARK  186  A    between atoms: _426  and  _429
REMARK  187  A    between atoms: _429  and  _430
REMARK  188  A    between atoms: _435  and  _437
REMARK  189  A    between atoms: _437  and  _438
REMARK  190  A    between atoms: _441  and  _443
REMARK  191  A    between atoms: _443  and  _444
REMARK  192  A    between atoms: _443  and  _446
REMARK  193  A    between atoms: _446  and  _447
REMARK  194  A    between atoms: _457  and  _459
REMARK  195  A    between atoms: _459  and  _460
REMARK  196  A    between atoms: _459  and  _462
REMARK  197  A    between atoms: _462  and  _463
REMARK  198  A    between atoms: _463  and  _464
REMARK  199  A    between atoms: _467  and  _469
REMARK  200  A    between atoms: _469  and  _470
REMARK  201  A    between atoms: _469  and  _472
REMARK  202  A    between atoms: _472  and  _473
REMARK  203  A    between atoms: _475  and  _477
REMARK  204  A    between atoms: _477  and  _478
REMARK  205  A    between atoms: _477  and  _480
REMARK  206  A    between atoms: _480  and  _481
REMARK  207  A    between atoms: _487  and  _489
REMARK  208  A    between atoms: _489  and  _490
REMARK  209  A    between atoms: _489  and  _492
REMARK  210  A    between atoms: _492  and  _493
REMARK  211  A    between atoms: _496  and  _498
REMARK  212  A    between atoms: _498  and  _499
REMARK  213  A    between atoms: _498  and  _501
REMARK  214  A    between atoms: _504  and  _506
REMARK  215  A    between atoms: _506  and  _507
REMARK  216  A    between atoms: _509  and  _511
REMARK  217  A    between atoms: _511  and  _512
REMARK  218  A    between atoms: _511  and  _514
REMARK  219  A    between atoms: _514  and  _515
REMARK  220  A    between atoms: _518  and  _520
REMARK  221  A    between atoms: _520  and  _521
REMARK  222  A    between atoms: _520  and  _523
REMARK  223  A    between atoms: _523  and  _524
REMARK  224  A    between atoms: _524  and  _525
REMARK  225  A    between atoms: _525  and  _526
REMARK  226  A    between atoms: _526  and  _527
REMARK  227  A    between atoms: _531  and  _533
REMARK  228  A    between atoms: _533  and  _534
REMARK  229  A    between atoms: _533  and  _536
REMARK  230  A    between atoms: _539  and  _541
REMARK  231  A    between atoms: _541  and  _542
REMARK  232  A    between atoms: _541  and  _544
REMARK  233  A    between atoms: _544  and  _545
REMARK  234  A    between atoms: _550  and  _551
REMARK                            x       y       z     vdW  Elec       q    Type
REMARK                         _______ _______ _______ _____ _____    ______ ____
ROOT
ATOM      1  CA  THR A   1      14.892   7.681  17.808  0.00  0.00    +0.160 C 
ENDROOT
BRANCH   1   2
ATOM      2  N   THR A   1      14.291   6.653  18.663  0.00  0.00    -0.237 NA
ATOM      3  H   THR A   1      14.278   6.791  19.694  0.00  0.00    +0.142 HD
ENDBRANCH   1   2
BRANCH   1   4
ATOM      4  CB  THR A   1      15.326   8.922  18.617  0.00  0.00    +0.134 C 
ATOM      5  CG2 THR A   1      16.108   9.894  17.739  0.00  0.00    +0.034 C 
BRANCH   4   6
ATOM      6  OG1 THR A   1      14.156   9.576  19.105  0.00  0.00    -0.383 OA
ATOM      7  HG1 THR A   1      13.649   8.954  19.685  0.00  0.00    +0.210 HD
ENDBRANCH   4   6
ENDBRANCH   1   4
BRANCH   1   8
ATOM      8  C   THR A   1      16.077   7.135  17.018  0.00  0.00    +0.227 C 
ATOM      9  O   THR A   1      16.185   7.376  15.811  0.00  0.00    -0.287 OA
ENDBRANCH   1   8
TORSDOF 4
REMARK  Name = ../refined-set-2016/4cwn/4cwn_pocket.pdb
REMARK  234 active torsions:
REMARK  status: ('A' for Active; 'I' for Inactive)
REMARK    1  A    between atoms: _1  and  _3
REMARK    2  A    between atoms: _3  and  _4
REMARK    3  A    between atoms: _3  and  _6
REMARK    4  A    between atoms: _6  and  _7
REMARK    5  A    between atoms: _13  and  _15
REMARK    6  A    between atoms: _15  and  _16
REMARK    7  A    between atoms: _15  and  _18
REMARK    8  A    between atoms: _18  and  _19
REMARK    9  A    between atoms: _22  and  _24
REMARK   10  A    between atoms: _24  and  _25
REMARK   11  A    between atoms: _24  and  _27
REMARK   12  A    between atoms: _27  and  _28
REMARK   13  A    between atoms: _31  and  _33
REMARK   14  A    between atoms: _33  and  _34
REMARK   15  A    between atoms: _33  and  _36
REMARK   16  A    between atoms: _36  and  _37
REMARK   17  A    between atoms: _37  and  _38
REMARK   18  A    between atoms: _41  and  _43
REMARK   19  A    between atoms: _43  and  _44
REMARK   20  A    between atoms: _43  and  _46
REMARK   21  A    between atoms: _46  and  _47
REMARK   22  A    between atoms: _50  and  _52
REMARK   23  A    between atoms: _52  and  _53
REMARK   24  A    between atoms: _52  and  _55
REMARK   25  A    between atoms: _55  and  _56
REMARK   26  A    between atoms: _59  and  _61
REMARK   27  A    between atoms: _61  and  _62
REMARK   28  A    between atoms: _61  and  _64
REMARK   29  A    between atoms: _64  and  _65
REMARK   30  A    between atoms: _67  and  _69
REMARK   31  A    between atoms: _69  and  _70
REMARK   32  A    between atoms: _69  and  _72
REMARK   33  A    between atoms: _72  and  _73
REMARK   34  A    between atoms: _78  and  _80
REMARK   35  A    between atoms: _80  and  _81
REMARK   36  A    between atoms: _80  and  _83
REMARK   37  A    between atoms: _83  and  _84
REMARK   38  A    between atoms: _86  and  _88
REMARK   39  A    between atoms: _88  and  _89
REMARK   40  A    between atoms: _88  and  _91
REMARK   41  A    between atoms: _91  and  _92
REMARK   42  A    between atoms: _94  and  _96
REMARK   43  A    between atoms: _96  and  _97
REMARK   44  A    between atoms: _96  and  _99
REMARK   45  A    between atoms: _99  and  _100
REMARK   46  A    between atoms: _103  and  _105
REMARK   47  A    between atoms: _105  and  _106
REMARK   48  A    between atoms: _109  and  _111
REMARK   49  A    between atoms: _111  and  _112
REMARK   50  A    between atoms: _111  and  _114
REMARK   51  A    between atoms: _114  and  _115
REMARK   52  A    between atoms: _118  and  _120
REMARK   53  A    between atoms: _120  and  _121
REMARK   54  A    between atoms: _120  and  _123
REMARK   55  A    between atoms: _123  and  _124
REMARK   56  A    between atoms: _124  and  _125
REMARK   57  A    between atoms: _125  and  _126
REMARK   58  A    between atoms: _126  and  _127
REMARK   59  A    between atoms: _131  and  _133
REMARK   60  A    between atoms: _133  and  _134
REMARK   61  A    between atoms: _133  and  _136
REMARK   62  A    between atoms: _136  and  _137
REMARK   63  A    between atoms: _140  and  _142
REMARK   64  A    between atoms: _142  and  _143
REMARK   65  A    between atoms: _142  and  _145
REMARK   66  A    between atoms: _145  and  _146
REMARK   67  A    between atoms: _149  and  _151
REMARK   68  A    between atoms: _151  and  _152
REMARK   69  A    between atoms: _151  and  _154
REMARK   70  A    between atoms: _157  and  _159
REMARK   71  A    between atoms: _159  and  _160
REMARK   72  A    between atoms: _159  and  _162
REMARK   73  A    between atoms: _162  and  _163
REMARK   74  A    between atoms: _166  and  _168
REMARK   75  A    between atoms: _168  and  _169
REMARK   76  A    between atoms: _168  and  _171
REMARK   77  A    between atoms: _171  and  _172
REMARK   78  A    between atoms: _175  and  _177
REMARK   79  A    between atoms: _177  and  _178
REMARK   80  A    between atoms: _180  and  _182
REMARK   81  A    between atoms: _182  and  _183
REMARK   82  A    between atoms: _182  and  _185
REMARK   83  A    between atoms: _185  and  _186
REMARK   84  A    between atoms: _189  and  _191
REMARK   85  A    between atoms: _191  and  _192
REMARK   86  A    between atoms: _194  and  _196
REMARK   87  A    between atoms: _196  and  _197
REMARK   88  A    between atoms: _196  and  _199
REMARK   89  A    between atoms: _199  and  _200
REMARK   90  A    between atoms: _200  and  _201
REMARK   91  A    between atoms: _203  and  _205
REMARK   92  A    between atoms: _205  and  _206
REMARK   93  A    between atoms: _205  and  _208
REMARK   94  A    between atoms: _208  and  _209
REMARK   95  A    between atoms: _212  and  _214
REMARK   96  A    between atoms: _214  and  _215
REMARK   97  A    between atoms: _214  and  _217
REMARK   98  A    between atoms: _217  and  _218
REMARK   99  A    between atoms: _221  and  _223
REMARK  100  A    between atoms: _223  and  _224
REMARK  101  A    between atoms: _223  and  _226
REMARK  102  A    between atoms: _226  and  _227
REMARK  103  A    between atoms: _230  and  _232
REMARK  104  A    between atoms: _232  and  _233
REMARK  105  A    between atoms: _232  and  _235
REMARK  106  A    between atoms: _235  and  _236
REMARK  107  A    between atoms: _239  and  _241
REMARK  108  A    between atoms: _241  and  _242
REMARK  109  A    between atoms: _241  and  _244
REMARK  110  A    between atoms: _244  and  _245
REMARK  111  A    between atoms: _250  and  _252
REMARK  112  A    between atoms: _252  and  _253
REMARK  113  A    between atoms: _252  and  _255
REMARK  114  A    between atoms: _255  and  _256
REMARK  115  A    between atoms: _259  and  _261
REMARK  116  A    between atoms: _261  and  _262
REMARK  117  A    between atoms: _264  and  _266
REMARK  118  A    between atoms: _266  and  _267
REMARK  119  A    between atoms: _266  and  _269
REMARK  120  A    between atoms: _269  and  _270
REMARK  121  A    between atoms: _273  and  _275
REMARK  122  A    between atoms: _275  and  _276
REMARK  123  A    between atoms: _275  and  _278
REMARK  124  A    between atoms: _278  and  _279
REMARK  125  A    between atoms: _282  and  _284
REMARK  126  A    between atoms: _284  and  _285
REMARK  127  A    between atoms: _288  and  _290
REMARK  128  A    between atoms: _290  and  _291
REMARK  129  A    between atoms: _290  and  _293
REMARK  130  A    between atoms: _293  and  _294
REMARK  131  A    between atoms: _294  and  _295
REMARK  132  A    between atoms: _295  and  _296
REMARK  133  A    between atoms: _296  and  _297
REMARK  134  A    between atoms: _301  and  _303
REMARK  135  A    between atoms: _303  and  _304
REMARK  136  A    between atoms: _303  and  _306
REMARK  137  A    between atoms: _306  and  _307
REMARK  138  A    between atoms: _310  and  _312
REMARK  139  A    between atoms: _312  and  _313
REMARK  140  A    between atoms: _315  and  _317
REMARK  141  A    between atoms: _317  and  _318
REMARK  142  A    between atoms: _317  and  _320
REMARK  143  A    between atoms: _323  and  _325
REMARK  144  A    between atoms: _325  and  _326
REMARK  145  A    between atoms: _328  and  _330
REMARK  146  A    between atoms: _330  and  _331
REMARK  147  A    between atoms: _330  and  _333
REMARK  148  A    between atoms: _333  and  _334
REMARK  149  A    between atoms: _340  and  _342
REMARK  150  A    between atoms: _342  and  _343
REMARK  151  A    between atoms: _342  and  _345
REMARK  152  A    between atoms: _345  and  _346
REMARK  153  A    between atoms: _351  and  _352
REMARK  154  A    between atoms: _354  and  _356
REMARK  155  A    between atoms: _356  and  _357
REMARK  156  A    between atoms: _356  and  _359
REMARK  157  A    between atoms: _359  and  _360
REMARK  158  A    between atoms: _365  and  _366
REMARK  159  A    between atoms: _368  and  _370
REMARK  160  A    between atoms: _370  and  _371
REMARK  161  A    between atoms: _370  and  _373
REMARK  162  A    between atoms: _376  and  _378
REMARK  163  A    between atoms: _378  and  _379
REMARK  164  A    between atoms: _378  and  _381
REMARK  165  A    between atoms: _381  and  _382
REMARK  166  A    between atoms: _385  and  _387
REMARK  167  A    between atoms: _387  and  _388
REMARK  168  A    between atoms: _387  and  _390
REMARK  169  A    between atoms: _393  and  _395
REMARK  170  A    between atoms: _395  and  _396
REMARK  171  A    between atoms: _395  and  _398
REMARK  172  A    between atoms: _398  and  _399
REMARK  173  A    between atoms: _402  and  _404
REMARK  174  A    between atoms: _404  and  _405
REMARK  175  A    between atoms: _404  and  _407
REMARK  176  A    between atoms: _407  and  _408
REMARK  177  A    between atoms: _411  and  _413
REMARK  178  A    between atoms: _413  and  _414
REMARK  179  A    between atoms: _413  and  _416
REMARK  180  A    between atoms: _416  and  _417
REMARK  181  A    between atoms: _417  and  _418
REMARK  182  A    between atoms: _418  and  _419
REMARK  183  A    between atoms: _419  and  _420
REMARK  184  A    between atoms: _424  and  _426
REMARK  185  A    between atoms: _426  and  _427
REMARK  186  A    between atoms: _426  and  _429
REMARK  187  A    between atoms: _429  and  _430
REMARK  188  A    between atoms: _435  and  _437
REMARK  189  A    between atoms: _437  and  _438
REMARK  190  A    between atoms: _441  and  _443
REMARK  191  A    between atoms: _443  and  _444
REMARK  192  A    between atoms: _443  and  _446
REMARK  193  A    between atoms: _446  and  _447
REMARK  194  A    between atoms: _457  and  _459
REMARK  195  A    between atoms: _459  and  _460
REMARK  196  A    between atoms: _459  and  _462
REMARK  197  A    between atoms: _462  and  _463
REMARK  198  A    between atoms: _463  and  _464
REMARK  199  A    between atoms: _467  and  _469
REMARK  200  A    between atoms: _469  and  _470
REMARK  201  A    between atoms: _469  and  _472
REMARK  202  A    between atoms: _472  and  _473
REMARK  203  A    between atoms: _475  and  _477
REMARK  204  A    between atoms: _477  and  _478
REMARK  205  A    between atoms: _477  and  _480
REMARK  206  A    between atoms: _480  and  _481
REMARK  207  A    between atoms: _487  and  _489
REMARK  208  A    between atoms: _489  and  _490
REMARK  209  A    between atoms: _489  and  _492
REMARK  210  A    between atoms: _492  and  _493
REMARK  211  A    between atoms: _496  and  _498
REMARK  212  A    between atoms: _498  and  _499
REMARK  213  A    between atoms: _498  and  _501
REMARK  214  A    between atoms: _504  and  _506
REMARK  215  A    between atoms: _506  and  _507
REMARK  216  A    between atoms: _509  and  _511
REMARK  217  A    between atoms: _511  and  _512
REMARK  218  A    between atoms: _511  and  _514
REMARK  219  A    between atoms: _514  and  _515
REMARK  220  A    between atoms: _518  and  _520
REMARK  221  A    between atoms: _520  and  _521
REMARK  222  A    between atoms: _520  and  _523
REMARK  223  A    between atoms: _523  and  _524
REMARK  224  A    between atoms: _524  and  _525
REMARK  225  A    between atoms: _525  and  _526
REMARK  226  A    between atoms: _526  and  _527
REMARK  227  A    between atoms: _531  and  _533
REMARK  228  A    between atoms: _533  and  _534
REMARK  229  A    between atoms: _533  and  _536
REMARK  230  A    between atoms: _539  and  _541
REMARK  231  A    between atoms: _541  and  _542
REMARK  232  A    between atoms: _541  and  _544
REMARK  233  A    between atoms: _544  and  _545
REMARK  234  A    between atoms: _550  and  _551
REMARK                            x       y       z     vdW  Elec       q    Type
REMARK                         _______ _______ _______ _____ _____    ______ ____
ROOT
ATOM      1  CA  PHE A   4       4.650  12.608  18.920  0.00  0.00    +0.153 C 
ENDROOT
BRANCH   1   3
ATOM      2  C   GLY A   3       4.895  11.097  17.008  0.00  0.00    +0.243 C 
ATOM      3  N   PHE A   4       4.952  11.287  18.329  0.00  0.00    -0.297 N 
ATOM      4  H   PHE A   4       5.212  10.495  18.950  0.00  0.00    +0.150 HD
ATOM      5  O   GLY A   3       4.552  11.982  16.230  0.00  0.00    -0.273 OA
BRANCH   2   6
ATOM      6  CA  GLY A   3       5.288   9.726  16.470  0.00  0.00    +0.176 C 
BRANCH   6   9
ATOM      7  C   VAL A   2       7.407   9.444  17.675  0.00  0.00    +0.241 C 
ATOM      8  O   VAL A   2       7.803  10.566  17.342  0.00  0.00    -0.273 OA
ATOM      9  N   GLY A   3       6.217   8.967  17.321  0.00  0.00    -0.295 N 
ATOM     10  H   GLY A   3       5.934   8.025  17.658  0.00  0.00    +0.150 HD
BRANCH   7  11
ATOM     11  CA  VAL A   2       8.277   8.522  18.554  0.00  0.00    +0.148 C 
BRANCH  11  14
ATOM     12  C   GLY A   1       7.559   6.338  19.391  0.00  0.00    +0.240 C 
ATOM     13  O   GLY A   1       7.455   6.762  20.543  0.00  0.00    -0.274 OA
ATOM     14  N   VAL A   2       7.944   7.106  18.371  0.00  0.00    -0.297 N 
ATOM     15  H   VAL A   2       8.010   6.689  17.420  0.00  0.00    +0.150 HD
BRANCH  12  16
ATOM     16  CA  GLY A   1       7.229   4.889  19.084  0.00  0.00    +0.169 C 
BRANCH  16  17
ATOM     17  N   GLY A   1       7.754   4.339  17.843  0.00  0.00    -0.236 NA
ATOM     18  H   GLY A   1       7.085   4.086  17.088  0.00  0.00    +0.142 HD
ENDBRANCH  16  17
ENDBRANCH  12  16
ENDBRANCH  11  14
BRANCH  11  19
ATOM     19  CB  VAL A   2       9.795   8.815  18.360  0.00  0.00    +0.027 C 
ATOM     20  CG2 VAL A   2      10.619   8.138  19.452  0.00  0.00    +0.002 C 
ATOM     21  CG1 VAL A   2      10.272   8.386  16.976  0.00  0.00    +0.002 C 
ENDBRANCH  11  19
ENDBRANCH   7  11
ENDBRANCH   6   9
ENDBRANCH   2   6
ENDBRANCH   1   3
BRANCH   1  22
ATOM     22  C   PHE A   4       5.405  13.737  18.219  0.00  0.00    +0.241 C 
ATOM     23  O   PHE A   4       4.841  14.796  17.952  0.00  0.00    -0.273 OA
ATOM     24  N   TYR A   5       6.683  13.505  17.925  0.00  0.00    -0.298 N 
ATOM     25  H   TYR A   5       7.086  12.560  18.088  0.00  0.00    +0.150 HD
BRANCH  24  26
ATOM     26  CA  TYR A   5       7.525  14.568  17.375  0.00  0.00    +0.141 C 
BRANCH  26  27
ATOM     27  C   TYR A   5       7.149  14.966  15.948  0.00  0.00    +0.227 C 
ATOM     28  O   TYR A   5       7.573  16.026  15.470  0.00  0.00    -0.286 OA
ENDBRANCH  26  27
BRANCH  26  29
ATOM     29  CB  TYR A   5       9.009  14.204  17.471  0.00  0.00    +0.054 C 
BRANCH  29  30
ATOM     30  CG  TYR A   5       9.462  13.894  18.879  0.00  0.00    -0.020 A 
ATOM     31  CD2 TYR A   5       9.696  14.918  19.813  0.00  0.00    -0.001 A 
ATOM     32  CE2 TYR A   5      10.110  14.613  21.114  0.00  0.00    +0.036 A 
ATOM     33  CZ  TYR A   5      10.298  13.277  21.474  0.00  0.00    +0.134 A 
ATOM     34  CE1 TYR A   5      10.067  12.266  20.563  0.00  0.00    +0.036 A 
ATOM     35  CD1 TYR A   5       9.656  12.579  19.275  0.00  0.00    -0.001 A 
BRANCH  33  36
ATOM     36  OH  TYR A   5      10.723  12.923  22.744  0.00  0.00    -0.506 OA
ATOM     37  HH  TYR A   5      10.849  13.740  23.288  0.00  0.00    +0.292 HD
ENDBRANCH  33  36
ENDBRANCH  29  30
ENDBRANCH  26  29
ENDBRANCH  24  26
ENDBRANCH   1  22
BRANCH   1  38
ATOM     38  CB  PHE A   4       4.965  12.647  20.425  0.00  0.00    +0.055 C 
BRANCH  38  39
ATOM     39  CG  PHE A   4       4.864  14.026  21.027  0.00  0.00    -0.020 A 
ATOM     40  CD2 PHE A   4       3.622  14.581  21.337  0.00  0.00    -0.004 A 
ATOM     41  CE2 PHE A   4       3.533  15.857  21.889  0.00  0.00    -0.000 A 
ATOM     42  CZ  PHE A   4       4.689  16.595  22.117  0.00  0.00    -0.000 A 
ATOM     43  CE1 PHE A   4       5.931  16.055  21.816  0.00  0.00    -0.000 A 
ATOM     44  CD1 PHE A   4       6.017  14.779  21.270  0.00  0.00    -0.004 A 
ENDBRANCH  38  39
ENDBRANCH   1  38
TORSDOF 16
REMARK  Name = ../refined-set-2016/4cwn/4cwn_pocket.pdb
REMARK  234 active torsions:
REMARK  status: ('A' for Active; 'I' for Inactive)
REMARK    1  A    between atoms: _1  and  _3
REMARK    2  A    between atoms: _3  and  _4
REMARK    3  A    between atoms: _3  and  _6
REMARK    4  A    between atoms: _6  and  _7
REMARK    5  A    between atoms: _13  and  _15
REMARK    6  A    between atoms: _15  and  _16
REMARK    7  A    between atoms: _15  and  _18
REMARK    8  A    between atoms: _18  and  _19
REMARK    9  A    between atoms: _22  and  _24
REMARK   10  A    between atoms: _24  and  _25
REMARK   11  A    between atoms: _24  and  _27
REMARK   12  A    between atoms: _27  and  _28
REMARK   13  A    between atoms: _31  and  _33
REMARK   14  A    between atoms: _33  and  _34
REMARK   15  A    between atoms: _33  and  _36
REMARK   16  A    between atoms: _36  and  _37
REMARK   17  A    between atoms: _37  and  _38
REMARK   18  A    between atoms: _41  and  _43
REMARK   19  A    between atoms: _43  and  _44
REMARK   20  A    between atoms: _43  and  _46
REMARK   21  A    between atoms: _46  and  _47
REMARK   22  A    between atoms: _50  and  _52
REMARK   23  A    between atoms: _52  and  _53
REMARK   24  A    between atoms: _52  and  _55
REMARK   25  A    between atoms: _55  and  _56
REMARK   26  A    between atoms: _59  and  _61
REMARK   27  A    between atoms: _61  and  _62
REMARK   28  A    between atoms: _61  and  _64
REMARK   29  A    between atoms: _64  and  _65
REMARK   30  A    between atoms: _67  and  _69
REMARK   31  A    between atoms: _69  and  _70
REMARK   32  A    between atoms: _69  and  _72
REMARK   33  A    between atoms: _72  and  _73
REMARK   34  A    between atoms: _78  and  _80
REMARK   35  A    between atoms: _80  and  _81
REMARK   36  A    between atoms: _80  and  _83
REMARK   37  A    between atoms: _83  and  _84
REMARK   38  A    between atoms: _86  and  _88
REMARK   39  A    between atoms: _88  and  _89
REMARK   40  A    between atoms: _88  and  _91
REMARK   41  A    between atoms: _91  and  _92
REMARK   42  A    between atoms: _94  and  _96
REMARK   43  A    between atoms: _96  and  _97
REMARK   44  A    between atoms: _96  and  _99
REMARK   45  A    between atoms: _99  and  _100
REMARK   46  A    between atoms: _103  and  _105
REMARK   47  A    between atoms: _105  and  _106
REMARK   48  A    between atoms: _109  and  _111
REMARK   49  A    between atoms: _111  and  _112
REMARK   50  A    between atoms: _111  and  _114
REMARK   51  A    between atoms: _114  and  _115
REMARK   52  A    between atoms: _118  and  _120
REMARK   53  A    between atoms: _120  and  _121
REMARK   54  A    between atoms: _120  and  _123
REMARK   55  A    between atoms: _123  and  _124
REMARK   56  A    between atoms: _124  and  _125
REMARK   57  A    between atoms: _125  and  _126
REMARK   58  A    between atoms: _126  and  _127
REMARK   59  A    between atoms: _131  and  _133
REMARK   60  A    between atoms: _133  and  _134
REMARK   61  A    between atoms: _133  and  _136
REMARK   62  A    between atoms: _136  and  _137
REMARK   63  A    between atoms: _140  and  _142
REMARK   64  A    between atoms: _142  and  _143
REMARK   65  A    between atoms: _142  and  _145
REMARK   66  A    between atoms: _145  and  _146
REMARK   67  A    between atoms: _149  and  _151
REMARK   68  A    between atoms: _151  and  _152
REMARK   69  A    between atoms: _151  and  _154
REMARK   70  A    between atoms: _157  and  _159
REMARK   71  A    between atoms: _159  and  _160
REMARK   72  A    between atoms: _159  and  _162
REMARK   73  A    between atoms: _162  and  _163
REMARK   74  A    between atoms: _166  and  _168
REMARK   75  A    between atoms: _168  and  _169
REMARK   76  A    between atoms: _168  and  _171
REMARK   77  A    between atoms: _171  and  _172
REMARK   78  A    between atoms: _175  and  _177
REMARK   79  A    between atoms: _177  and  _178
REMARK   80  A    between atoms: _180  and  _182
REMARK   81  A    between atoms: _182  and  _183
REMARK   82  A    between atoms: _182  and  _185
REMARK   83  A    between atoms: _185  and  _186
REMARK   84  A    between atoms: _189  and  _191
REMARK   85  A    between atoms: _191  and  _192
REMARK   86  A    between atoms: _194  and  _196
REMARK   87  A    between atoms: _196  and  _197
REMARK   88  A    between atoms: _196  and  _199
REMARK   89  A    between atoms: _199  and  _200
REMARK   90  A    between atoms: _200  and  _201
REMARK   91  A    between atoms: _203  and  _205
REMARK   92  A    between atoms: _205  and  _206
REMARK   93  A    between atoms: _205  and  _208
REMARK   94  A    between atoms: _208  and  _209
REMARK   95  A    between atoms: _212  and  _214
REMARK   96  A    between atoms: _214  and  _215
REMARK   97  A    between atoms: _214  and  _217
REMARK   98  A    between atoms: _217  and  _218
REMARK   99  A    between atoms: _221  and  _223
REMARK  100  A    between atoms: _223  and  _224
REMARK  101  A    between atoms: _223  and  _226
REMARK  102  A    between atoms: _226  and  _227
REMARK  103  A    between atoms: _230  and  _232
REMARK  104  A    between atoms: _232  and  _233
REMARK  105  A    between atoms: _232  and  _235
REMARK  106  A    between atoms: _235  and  _236
REMARK  107  A    between atoms: _239  and  _241
REMARK  108  A    between atoms: _241  and  _242
REMARK  109  A    between atoms: _241  and  _244
REMARK  110  A    between atoms: _244  and  _245
REMARK  111  A    between atoms: _250  and  _252
REMARK  112  A    between atoms: _252  and  _253
REMARK  113  A    between atoms: _252  and  _255
REMARK  114  A    between atoms: _255  and  _256
REMARK  115  A    between atoms: _259  and  _261
REMARK  116  A    between atoms: _261  and  _262
REMARK  117  A    between atoms: _264  and  _266
REMARK  118  A    between atoms: _266  and  _267
REMARK  119  A    between atoms: _266  and  _269
REMARK  120  A    between atoms: _269  and  _270
REMARK  121  A    between atoms: _273  and  _275
REMARK  122  A    between atoms: _275  and  _276
REMARK  123  A    between atoms: _275  and  _278
REMARK  124  A    between atoms: _278  and  _279
REMARK  125  A    between atoms: _282  and  _284
REMARK  126  A    between atoms: _284  and  _285
REMARK  127  A    between atoms: _288  and  _290
REMARK  128  A    between atoms: _290  and  _291
REMARK  129  A    between atoms: _290  and  _293
REMARK  130  A    between atoms: _293  and  _294
REMARK  131  A    between atoms: _294  and  _295
REMARK  132  A    between atoms: _295  and  _296
REMARK  133  A    between atoms: _296  and  _297
REMARK  134  A    between atoms: _301  and  _303
REMARK  135  A    between atoms: _303  and  _304
REMARK  136  A    between atoms: _303  and  _306
REMARK  137  A    between atoms: _306  and  _307
REMARK  138  A    between atoms: _310  and  _312
REMARK  139  A    between atoms: _312  and  _313
REMARK  140  A    between atoms: _315  and  _317
REMARK  141  A    between atoms: _317  and  _318
REMARK  142  A    between atoms: _317  and  _320
REMARK  143  A    between atoms: _323  and  _325
REMARK  144  A    between atoms: _325  and  _326
REMARK  145  A    between atoms: _328  and  _330
REMARK  146  A    between atoms: _330  and  _331
REMARK  147  A    between atoms: _330  and  _333
REMARK  148  A    between atoms: _333  and  _334
REMARK  149  A    between atoms: _340  and  _342
REMARK  150  A    between atoms: _342  and  _343
REMARK  151  A    between atoms: _342  and  _345
REMARK  152  A    between atoms: _345  and  _346
REMARK  153  A    between atoms: _351  and  _352
REMARK  154  A    between atoms: _354  and  _356
REMARK  155  A    between atoms: _356  and  _357
REMARK  156  A    between atoms: _356  and  _359
REMARK  157  A    between atoms: _359  and  _360
REMARK  158  A    between atoms: _365  and  _366
REMARK  159  A    between atoms: _368  and  _370
REMARK  160  A    between atoms: _370  and  _371
REMARK  161  A    between atoms: _370  and  _373
REMARK  162  A    between atoms: _376  and  _378
REMARK  163  A    between atoms: _378  and  _379
REMARK  164  A    between atoms: _378  and  _381
REMARK  165  A    between atoms: _381  and  _382
REMARK  166  A    between atoms: _385  and  _387
REMARK  167  A    between atoms: _387  and  _388
REMARK  168  A    between atoms: _387  and  _390
REMARK  169  A    between atoms: _393  and  _395
REMARK  170  A    between atoms: _395  and  _396
REMARK  171  A    between atoms: _395  and  _398
REMARK  172  A    between atoms: _398  and  _399
REMARK  173  A    between atoms: _402  and  _404
REMARK  174  A    between atoms: _404  and  _405
REMARK  175  A    between atoms: _404  and  _407
REMARK  176  A    between atoms: _407  and  _408
REMARK  177  A    between atoms: _411  and  _413
REMARK  178  A    between atoms: _413  and  _414
REMARK  179  A    between atoms: _413  and  _416
REMARK  180  A    between atoms: _416  and  _417
REMARK  181  A    between atoms: _417  and  _418
REMARK  182  A    between atoms: _418  and  _419
REMARK  183  A    between atoms: _419  and  _420
REMARK  184  A    between atoms: _424  and  _426
REMARK  185  A    between atoms: _426  and  _427
REMARK  186  A    between atoms: _426  and  _429
REMARK  187  A    between atoms: _429  and  _430
REMARK  188  A    between atoms: _435  and  _437
REMARK  189  A    between atoms: _437  and  _438
REMARK  190  A    between atoms: _441  and  _443
REMARK  191  A    between atoms: _443  and  _444
REMARK  192  A    between atoms: _443  and  _446
REMARK  193  A    between atoms: _446  and  _447
REMARK  194  A    between atoms: _457  and  _459
REMARK  195  A    between atoms: _459  and  _460
REMARK  196  A    between atoms: _459  and  _462
REMARK  197  A    between atoms: _462  and  _463
REMARK  198  A    between atoms: _463  and  _464
REMARK  199  A    between atoms: _467  and  _469
REMARK  200  A    between atoms: _469  and  _470
REMARK  201  A    between atoms: _469  and  _472
REMARK  202  A    between atoms: _472  and  _473
REMARK  203  A    between atoms: _475  and  _477
REMARK  204  A    between atoms: _477  and  _478
REMARK  205  A    between atoms: _477  and  _480
REMARK  206  A    between atoms: _480  and  _481
REMARK  207  A    between atoms: _487  and  _489
REMARK  208  A    between atoms: _489  and  _490
REMARK  209  A    between atoms: _489  and  _492
REMARK  210  A    between atoms: _492  and  _493
REMARK  211  A    between atoms: _496  and  _498
REMARK  212  A    between atoms: _498  and  _499
REMARK  213  A    between atoms: _498  and  _501
REMARK  214  A    between atoms: _504  and  _506
REMARK  215  A    between atoms: _506  and  _507
REMARK  216  A    between atoms: _509  and  _511
REMARK  217  A    between atoms: _511  and  _512
REMARK  218  A    between atoms: _511  and  _514
REMARK  219  A    between atoms: _514  and  _515
REMARK  220  A    between atoms: _518  and  _520
REMARK  221  A    between atoms: _520  and  _521
REMARK  222  A    between atoms: _520  and  _523
REMARK  223  A    between atoms: _523  and  _524
REMARK  224  A    between atoms: _524  and  _525
REMARK  225  A    between atoms: _525  and  _526
REMARK  226  A    between atoms: _526  and  _527
REMARK  227  A    between atoms: _531  and  _533
REMARK  228  A    between atoms: _533  and  _534
REMARK  229  A    between atoms: _533  and  _536
REMARK  230  A    between atoms: _539  and  _541
REMARK  231  A    between atoms: _541  and  _542
REMARK  232  A    between atoms: _541  and  _544
REMARK  233  A    between atoms: _544  and  _545
REMARK  234  A    between atoms: _550  and  _551
REMARK                            x       y       z     vdW  Elec       q    Type
REMARK                         _______ _______ _______ _____ _____    ______ ____
ROOT
ATOM      1  CG  TYR A   1       8.026  19.852  16.548  0.00  0.00    -0.020 A 
ATOM      2  CD2 TYR A   1       7.799  18.872  17.513  0.00  0.00    -0.001 A 
ATOM      3  CE2 TYR A   1       7.628  19.208  18.855  0.00  0.00    +0.036 A 
ATOM      4  CZ  TYR A   1       7.680  20.532  19.241  0.00  0.00    +0.134 A 
ATOM      5  CE1 TYR A   1       7.887  21.535  18.297  0.00  0.00    +0.036 A 
ATOM      6  CD1 TYR A   1       8.053  21.188  16.956  0.00  0.00    -0.001 A 
ENDROOT
BRANCH   4   7
ATOM      7  OH  TYR A   1       7.496  20.854  20.578  0.00  0.00    -0.506 OA
ATOM      8  HH  TYR A   1       7.562  21.835  20.692  0.00  0.00    +0.292 HD
ENDBRANCH   4   7
BRANCH   1   9
ATOM      9  CB  TYR A   1       8.168  19.483  15.078  0.00  0.00    +0.051 C 
BRANCH   9  10
ATOM     10  CA  TYR A   1       6.788  19.550  14.395  0.00  0.00    +0.137 C 
BRANCH  10  11
ATOM     11  N   TYR A   1       5.908  18.468  14.885  0.00  0.00    -0.239 NA
ATOM     12  H   TYR A   1       6.335  17.598  15.263  0.00  0.00    +0.142 HD
ENDBRANCH  10  11
BRANCH  10  13
ATOM     13  C   TYR A   1       6.872  19.690  12.871  0.00  0.00    +0.224 C 
ATOM     14  O   TYR A   1       7.514  20.616  12.356  0.00  0.00    -0.287 OA
ENDBRANCH  10  13
ENDBRANCH   9  10
ENDBRANCH   1   9
TORSDOF 5
REMARK  Name = ../refined-set-2016/4cwn/4cwn_pocket.pdb
REMARK  234 active torsions:
REMARK  status: ('A' for Active; 'I' for Inactive)
REMARK    1  A    between atoms: _1  and  _3
REMARK    2  A    between atoms: _3  and  _4
REMARK    3  A    between atoms: _3  and  _6
REMARK    4  A    between atoms: _6  and  _7
REMARK    5  A    between atoms: _13  and  _15
REMARK    6  A    between atoms: _15  and  _16
REMARK    7  A    between atoms: _15  and  _18
REMARK    8  A    between atoms: _18  and  _19
REMARK    9  A    between atoms: _22  and  _24
REMARK   10  A    between atoms: _24  and  _25
REMARK   11  A    between atoms: _24  and  _27
REMARK   12  A    between atoms: _27  and  _28
REMARK   13  A    between atoms: _31  and  _33
REMARK   14  A    between atoms: _33  and  _34
REMARK   15  A    between atoms: _33  and  _36
REMARK   16  A    between atoms: _36  and  _37
REMARK   17  A    between atoms: _37  and  _38
REMARK   18  A    between atoms: _41  and  _43
REMARK   19  A    between atoms: _43  and  _44
REMARK   20  A    between atoms: _43  and  _46
REMARK   21  A    between atoms: _46  and  _47
REMARK   22  A    between atoms: _50  and  _52
REMARK   23  A    between atoms: _52  and  _53
REMARK   24  A    between atoms: _52  and  _55
REMARK   25  A    between atoms: _55  and  _56
REMARK   26  A    between atoms: _59  and  _61
REMARK   27  A    between atoms: _61  and  _62
REMARK   28  A    between atoms: _61  and  _64
REMARK   29  A    between atoms: _64  and  _65
REMARK   30  A    between atoms: _67  and  _69
REMARK   31  A    between atoms: _69  and  _70
REMARK   32  A    between atoms: _69  and  _72
REMARK   33  A    between atoms: _72  and  _73
REMARK   34  A    between atoms: _78  and  _80
REMARK   35  A    between atoms: _80  and  _81
REMARK   36  A    between atoms: _80  and  _83
REMARK   37  A    between atoms: _83  and  _84
REMARK   38  A    between atoms: _86  and  _88
REMARK   39  A    between atoms: _88  and  _89
REMARK   40  A    between atoms: _88  and  _91
REMARK   41  A    between atoms: _91  and  _92
REMARK   42  A    between atoms: _94  and  _96
REMARK   43  A    between atoms: _96  and  _97
REMARK   44  A    between atoms: _96  and  _99
REMARK   45  A    between atoms: _99  and  _100
REMARK   46  A    between atoms: _103  and  _105
REMARK   47  A    between atoms: _105  and  _106
REMARK   48  A    between atoms: _109  and  _111
REMARK   49  A    between atoms: _111  and  _112
REMARK   50  A    between atoms: _111  and  _114
REMARK   51  A    between atoms: _114  and  _115
REMARK   52  A    between atoms: _118  and  _120
REMARK   53  A    between atoms: _120  and  _121
REMARK   54  A    between atoms: _120  and  _123
REMARK   55  A    between atoms: _123  and  _124
REMARK   56  A    between atoms: _124  and  _125
REMARK   57  A    between atoms: _125  and  _126
REMARK   58  A    between atoms: _126  and  _127
REMARK   59  A    between atoms: _131  and  _133
REMARK   60  A    between atoms: _133  and  _134
REMARK   61  A    between atoms: _133  and  _136
REMARK   62  A    between atoms: _136  and  _137
REMARK   63  A    between atoms: _140  and  _142
REMARK   64  A    between atoms: _142  and  _143
REMARK   65  A    between atoms: _142  and  _145
REMARK   66  A    between atoms: _145  and  _146
REMARK   67  A    between atoms: _149  and  _151
REMARK   68  A    between atoms: _151  and  _152
REMARK   69  A    between atoms: _151  and  _154
REMARK   70  A    between atoms: _157  and  _159
REMARK   71  A    between atoms: _159  and  _160
REMARK   72  A    between atoms: _159  and  _162
REMARK   73  A    between atoms: _162  and  _163
REMARK   74  A    between atoms: _166  and  _168
REMARK   75  A    between atoms: _168  and  _169
REMARK   76  A    between atoms: _168  and  _171
REMARK   77  A    between atoms: _171  and  _172
REMARK   78  A    between atoms: _175  and  _177
REMARK   79  A    between atoms: _177  and  _178
REMARK   80  A    between atoms: _180  and  _182
REMARK   81  A    between atoms: _182  and  _183
REMARK   82  A    between atoms: _182  and  _185
REMARK   83  A    between atoms: _185  and  _186
REMARK   84  A    between atoms: _189  and  _191
REMARK   85  A    between atoms: _191  and  _192
REMARK   86  A    between atoms: _194  and  _196
REMARK   87  A    between atoms: _196  and  _197
REMARK   88  A    between atoms: _196  and  _199
REMARK   89  A    between atoms: _199  and  _200
REMARK   90  A    between atoms: _200  and  _201
REMARK   91  A    between atoms: _203  and  _205
REMARK   92  A    between atoms: _205  and  _206
REMARK   93  A    between atoms: _205  and  _208
REMARK   94  A    between atoms: _208  and  _209
REMARK   95  A    between atoms: _212  and  _214
REMARK   96  A    between atoms: _214  and  _215
REMARK   97  A    between atoms: _214  and  _217
REMARK   98  A    between atoms: _217  and  _218
REMARK   99  A    between atoms: _221  and  _223
REMARK  100  A    between atoms: _223  and  _224
REMARK  101  A    between atoms: _223  and  _226
REMARK  102  A    between atoms: _226  and  _227
REMARK  103  A    between atoms: _230  and  _232
REMARK  104  A    between atoms: _232  and  _233
REMARK  105  A    between atoms: _232  and  _235
REMARK  106  A    between atoms: _235  and  _236
REMARK  107  A    between atoms: _239  and  _241
REMARK  108  A    between atoms: _241  and  _242
REMARK  109  A    between atoms: _241  and  _244
REMARK  110  A    between atoms: _244  and  _245
REMARK  111  A    between atoms: _250  and  _252
REMARK  112  A    between atoms: _252  and  _253
REMARK  113  A    between atoms: _252  and  _255
REMARK  114  A    between atoms: _255  and  _256
REMARK  115  A    between atoms: _259  and  _261
REMARK  116  A    between atoms: _261  and  _262
REMARK  117  A    between atoms: _264  and  _266
REMARK  118  A    between atoms: _266  and  _267
REMARK  119  A    between atoms: _266  and  _269
REMARK  120  A    between atoms: _269  and  _270
REMARK  121  A    between atoms: _273  and  _275
REMARK  122  A    between atoms: _275  and  _276
REMARK  123  A    between atoms: _275  and  _278
REMARK  124  A    between atoms: _278  and  _279
REMARK  125  A    between atoms: _282  and  _284
REMARK  126  A    between atoms: _284  and  _285
REMARK  127  A    between atoms: _288  and  _290
REMARK  128  A    between atoms: _290  and  _291
REMARK  129  A    between atoms: _290  and  _293
REMARK  130  A    between atoms: _293  and  _294
REMARK  131  A    between atoms: _294  and  _295
REMARK  132  A    between atoms: _295  and  _296
REMARK  133  A    between atoms: _296  and  _297
REMARK  134  A    between atoms: _301  and  _303
REMARK  135  A    between atoms: _303  and  _304
REMARK  136  A    between atoms: _303  and  _306
REMARK  137  A    between atoms: _306  and  _307
REMARK  138  A    between atoms: _310  and  _312
REMARK  139  A    between atoms: _312  and  _313
REMARK  140  A    between atoms: _315  and  _317
REMARK  141  A    between atoms: _317  and  _318
REMARK  142  A    between atoms: _317  and  _320
REMARK  143  A    between atoms: _323  and  _325
REMARK  144  A    between atoms: _325  and  _326
REMARK  145  A    between atoms: _328  and  _330
REMARK  146  A    between atoms: _330  and  _331
REMARK  147  A    between atoms: _330  and  _333
REMARK  148  A    between atoms: _333  and  _334
REMARK  149  A    between atoms: _340  and  _342
REMARK  150  A    between atoms: _342  and  _343
REMARK  151  A    between atoms: _342  and  _345
REMARK  152  A    between atoms: _345  and  _346
REMARK  153  A    between atoms: _351  and  _352
REMARK  154  A    between atoms: _354  and  _356
REMARK  155  A    between atoms: _356  and  _357
REMARK  156  A    between atoms: _356  and  _359
REMARK  157  A    between atoms: _359  and  _360
REMARK  158  A    between atoms: _365  and  _366
REMARK  159  A    between atoms: _368  and  _370
REMARK  160  A    between atoms: _370  and  _371
REMARK  161  A    between atoms: _370  and  _373
REMARK  162  A    between atoms: _376  and  _378
REMARK  163  A    between atoms: _378  and  _379
REMARK  164  A    between atoms: _378  and  _381
REMARK  165  A    between atoms: _381  and  _382
REMARK  166  A    between atoms: _385  and  _387
REMARK  167  A    between atoms: _387  and  _388
REMARK  168  A    between atoms: _387  and  _390
REMARK  169  A    between atoms: _393  and  _395
REMARK  170  A    between atoms: _395  and  _396
REMARK  171  A    between atoms: _395  and  _398
REMARK  172  A    between atoms: _398  and  _399
REMARK  173  A    between atoms: _402  and  _404
REMARK  174  A    between atoms: _404  and  _405
REMARK  175  A    between atoms: _404  and  _407
REMARK  176  A    between atoms: _407  and  _408
REMARK  177  A    between atoms: _411  and  _413
REMARK  178  A    between atoms: _413  and  _414
REMARK  179  A    between atoms: _413  and  _416
REMARK  180  A    between atoms: _416  and  _417
REMARK  181  A    between atoms: _417  and  _418
REMARK  182  A    between atoms: _418  and  _419
REMARK  183  A    between atoms: _419  and  _420
REMARK  184  A    between atoms: _424  and  _426
REMARK  185  A    between atoms: _426  and  _427
REMARK  186  A    between atoms: _426  and  _429
REMARK  187  A    between atoms: _429  and  _430
REMARK  188  A    between atoms: _435  and  _437
REMARK  189  A    between atoms: _437  and  _438
REMARK  190  A    between atoms: _441  and  _443
REMARK  191  A    between atoms: _443  and  _444
REMARK  192  A    between atoms: _443  and  _446
REMARK  193  A    between atoms: _446  and  _447
REMARK  194  A    between atoms: _457  and  _459
REMARK  195  A    between atoms: _459  and  _460
REMARK  196  A    between atoms: _459  and  _462
REMARK  197  A    between atoms: _462  and  _463
REMARK  198  A    between atoms: _463  and  _464
REMARK  199  A    between atoms: _467  and  _469
REMARK  200  A    between atoms: _469  and  _470
REMARK  201  A    between atoms: _469  and  _472
REMARK  202  A    between atoms: _472  and  _473
REMARK  203  A    between atoms: _475  and  _477
REMARK  204  A    between atoms: _477  and  _478
REMARK  205  A    between atoms: _477  and  _480
REMARK  206  A    between atoms: _480  and  _481
REMARK  207  A    between atoms: _487  and  _489
REMARK  208  A    between atoms: _489  and  _490
REMARK  209  A    between atoms: _489  and  _492
REMARK  210  A    between atoms: _492  and  _493
REMARK  211  A    between atoms: _496  and  _498
REMARK  212  A    between atoms: _498  and  _499
REMARK  213  A    between atoms: _498  and  _501
REMARK  214  A    between atoms: _504  and  _506
REMARK  215  A    between atoms: _506  and  _507
REMARK  216  A    between atoms: _509  and  _511
REMARK  217  A    between atoms: _511  and  _512
REMARK  218  A    between atoms: _511  and  _514
REMARK  219  A    between atoms: _514  and  _515
REMARK  220  A    between atoms: _518  and  _520
REMARK  221  A    between atoms: _520  and  _521
REMARK  222  A    between atoms: _520  and  _523
REMARK  223  A    between atoms: _523  and  _524
REMARK  224  A    between atoms: _524  and  _525
REMARK  225  A    between atoms: _525  and  _526
REMARK  226  A    between atoms: _526  and  _527
REMARK  227  A    between atoms: _531  and  _533
REMARK  228  A    between atoms: _533  and  _534
REMARK  229  A    between atoms: _533  and  _536
REMARK  230  A    between atoms: _539  and  _541
REMARK  231  A    between atoms: _541  and  _542
REMARK  232  A    between atoms: _541  and  _544
REMARK  233  A    between atoms: _544  and  _545
REMARK  234  A    between atoms: _550  and  _551
REMARK                            x       y       z     vdW  Elec       q    Type
REMARK                         _______ _______ _______ _____ _____    ______ ____
ROOT
ATOM      1  C   ILE A   4      -2.170  18.629  29.265  0.00  0.00    +0.241 C 
ATOM      2  N   THR A   5      -1.794  18.151  30.445  0.00  0.00    -0.295 N 
ATOM      3  H   THR A   5      -1.311  18.770  31.127  0.00  0.00    +0.150 HD
ATOM      4  O   ILE A   4      -2.809  17.967  28.460  0.00  0.00    -0.273 OA
ENDROOT
BRANCH   2   5
ATOM      5  CA  THR A   5      -2.057  16.761  30.785  0.00  0.00    +0.176 C 
BRANCH   5   6
ATOM      6  C   THR A   5      -2.361  16.582  32.279  0.00  0.00    +0.243 C 
ATOM      7  O   THR A   5      -1.824  17.295  33.124  0.00  0.00    -0.273 OA
ATOM      8  N   LYS A   6      -3.236  15.631  32.574  0.00  0.00    -0.297 N 
ATOM      9  H   LYS A   6      -3.619  15.050  31.801  0.00  0.00    +0.150 HD
BRANCH   8  10
ATOM     10  CA  LYS A   6      -3.686  15.363  33.936  0.00  0.00    +0.149 C 
BRANCH  10  11
ATOM     11  C   LYS A   6      -3.819  13.852  34.105  0.00  0.00    +0.241 C 
ATOM     12  N   HIS A   7      -3.021  13.302  35.016  0.00  0.00    -0.298 N 
ATOM     13  H   HIS A   7      -2.328  13.916  35.490  0.00  0.00    +0.150 HD
ATOM     14  O   LYS A   6      -4.602  13.215  33.399  0.00  0.00    -0.273 OA
BRANCH  12  15
ATOM     15  CA  HIS A   7      -3.055  11.887  35.394  0.00  0.00    +0.143 C 
BRANCH  15  16
ATOM     16  C   HIS A   7      -3.715  11.809  36.745  0.00  0.00    +0.227 C 
ATOM     17  O   HIS A   7      -3.592  12.735  37.557  0.00  0.00    -0.286 OA
ENDBRANCH  15  16
BRANCH  15  18
ATOM     18  CB  HIS A   7      -1.621  11.350  35.449  0.00  0.00    +0.075 C 
BRANCH  18  19
ATOM     19  CG  HIS A   7      -1.512   9.849  35.638  0.00  0.00    +0.082 A 
ATOM     20  ND1 HIS A   7      -1.679   9.253  36.834  0.00  0.00    -0.227 NA
ATOM     21  CE1 HIS A   7      -1.506   7.927  36.702  0.00  0.00    +0.199 A 
ATOM     22  NE2 HIS A   7      -1.206   7.674  35.421  0.00  0.00    -0.221 NA
ATOM     23  CD2 HIS A   7      -1.194   8.838  34.741  0.00  0.00    +0.115 A 
ENDBRANCH  18  19
ENDBRANCH  15  18
ENDBRANCH  12  15
ENDBRANCH  10  11
BRANCH  10  24
ATOM     24  CB  LYS A   6      -5.034  16.061  34.191  0.00  0.00    +0.029 C 
BRANCH  24  25
ATOM     25  CG  LYS A   6      -5.705  15.696  35.515  0.00  0.00    +0.000 C 
BRANCH  25  26
ATOM     26  CD  LYS A   6      -4.984  16.311  36.710  0.00  0.00    -0.024 C 
BRANCH  26  27
ATOM     27  CE  LYS A   6      -5.774  16.067  37.991  0.00  0.00    -0.086 C 
BRANCH  27  28
ATOM     28  NZ  LYS A   6      -5.602  14.677  38.495  0.00  0.00    +0.380 N 
ATOM     29  HZ1 LYS A   6      -6.156  14.555  39.367  0.00  0.00    -0.089 HD
ATOM     30  HZ2 LYS A   6      -4.596  14.504  38.695  0.00  0.00    -0.089 HD
ATOM     31  HZ3 LYS A   6      -5.934  14.005  37.774  0.00  0.00    -0.089 HD
ENDBRANCH  27  28
ENDBRANCH  26  27
ENDBRANCH  25  26
ENDBRANCH  24  25
ENDBRANCH  10  24
ENDBRANCH   8  10
ENDBRANCH   5   6
BRANCH   5  32
ATOM     32  CB  THR A   5      -0.903  15.843  30.305  0.00  0.00    +0.137 C 
ATOM     33  CG2 THR A   5       0.374  16.055  31.151  0.00  0.00    +0.034 C 
BRANCH  32  34
ATOM     34  OG1 THR A   5      -1.326  14.474  30.322  0.00  0.00    -0.382 OA
ATOM     35  HG1 THR A   5      -2.104  14.363  29.719  0.00  0.00    +0.210 HD
ENDBRANCH  32  34
ENDBRANCH   5  32
ENDBRANCH   2   5
BRANCH   1  36
ATOM     36  CA  ILE A   4      -1.734  20.044  28.916  0.00  0.00    +0.149 C 
BRANCH  36  39
ATOM     37  C   VAL A   3       0.203  20.024  27.424  0.00  0.00    +0.241 C 
ATOM     38  O   VAL A   3       0.991  20.234  28.346  0.00  0.00    -0.273 OA
ATOM     39  N   ILE A   4      -1.117  19.956  27.593  0.00  0.00    -0.297 N 
ATOM     40  H   ILE A   4      -1.727  19.837  26.759  0.00  0.00    +0.150 HD
BRANCH  37  41
ATOM     41  CA  VAL A   3       0.718  19.826  26.001  0.00  0.00    +0.149 C 
BRANCH  41  43
ATOM     42  C   THR A   2       1.052  21.707  24.490  0.00  0.00    +0.243 C 
ATOM     43  N   VAL A   3       1.444  21.021  25.556  0.00  0.00    -0.297 N 
ATOM     44  H   VAL A   3       2.281  21.336  26.086  0.00  0.00    +0.150 HD
ATOM     45  O   THR A   2       0.057  21.407  23.829  0.00  0.00    -0.273 OA
BRANCH  42  46
ATOM     46  CA  THR A   2       1.882  22.930  24.109  0.00  0.00    +0.176 C 
BRANCH  46  49
ATOM     47  C   VAL A   1       3.414  22.698  22.246  0.00  0.00    +0.238 C 
ATOM     48  O   VAL A   1       4.404  22.751  22.972  0.00  0.00    -0.274 OA
ATOM     49  N   THR A   2       2.171  22.840  22.695  0.00  0.00    -0.295 N 
ATOM     50  H   THR A   2       1.387  22.888  22.013  0.00  0.00    +0.150 HD
BRANCH  47  51
ATOM     51  CA  VAL A   1       3.561  22.510  20.747  0.00  0.00    +0.145 C 
BRANCH  51  52
ATOM     52  CB  VAL A   1       3.973  21.060  20.405  0.00  0.00    +0.025 C 
ATOM     53  CG2 VAL A   1       2.924  20.063  20.911  0.00  0.00    +0.002 C 
ATOM     54  CG1 VAL A   1       4.162  20.894  18.893  0.00  0.00    +0.002 C 
ENDBRANCH  51  52
BRANCH  51  55
ATOM     55  N   VAL A   1       4.534  23.495  20.278  0.00  0.00    -0.238 NA
ATOM     56  H   VAL A   1       5.489  23.511  20.688  0.00  0.00    +0.142 HD
ENDBRANCH  51  55
ENDBRANCH  47  51
ENDBRANCH  46  49
BRANCH  46  57
ATOM     57  CB  THR A   2       1.087  24.209  24.449  0.00  0.00    +0.137 C 
ATOM     58  CG2 THR A   2       0.996  24.397  25.967  0.00  0.00    +0.034 C 
BRANCH  57  59
ATOM     59  OG1 THR A   2       1.719  25.356  23.866  0.00  0.00    -0.382 OA
ATOM     60  HG1 THR A   2       2.639  25.442  24.223  0.00  0.00    +0.210 HD
ENDBRANCH  57  59
ENDBRANCH  46  57
ENDBRANCH  42  46
ENDBRANCH  41  43
BRANCH  41  61
ATOM     61  CB  VAL A   3       1.586  18.548  25.911  0.00  0.00    +0.027 C 
ATOM     62  CG2 VAL A   3       0.803  17.327  26.381  0.00  0.00    +0.002 C 
ATOM     63  CG1 VAL A   3       2.081  18.333  24.479  0.00  0.00    +0.002 C 
ENDBRANCH  41  61
ENDBRANCH  37  41
ENDBRANCH  36  39
BRANCH  36  64
ATOM     64  CB  ILE A   4      -2.964  20.990  28.934  0.00  0.00    +0.027 C 
ATOM     65  CG2 ILE A   4      -3.433  21.255  30.363  0.00  0.00    +0.002 C 
BRANCH  64  66
ATOM     66  CG1 ILE A   4      -2.679  22.304  28.184  0.00  0.00    +0.002 C 
ATOM     67  CD1 ILE A   4      -1.579  23.162  28.772  0.00  0.00    +0.000 C 
ENDBRANCH  64  66
ENDBRANCH  36  64
ENDBRANCH   1  36
TORSDOF 29
REMARK  Name = ../refined-set-2016/4cwn/4cwn_pocket.pdb
REMARK  234 active torsions:
REMARK  status: ('A' for Active; 'I' for Inactive)
REMARK    1  A    between atoms: _1  and  _3
REMARK    2  A    between atoms: _3  and  _4
REMARK    3  A    between atoms: _3  and  _6
REMARK    4  A    between atoms: _6  and  _7
REMARK    5  A    between atoms: _13  and  _15
REMARK    6  A    between atoms: _15  and  _16
REMARK    7  A    between atoms: _15  and  _18
REMARK    8  A    between atoms: _18  and  _19
REMARK    9  A    between atoms: _22  and  _24
REMARK   10  A    between atoms: _24  and  _25
REMARK   11  A    between atoms: _24  and  _27
REMARK   12  A    between atoms: _27  and  _28
REMARK   13  A    between atoms: _31  and  _33
REMARK   14  A    between atoms: _33  and  _34
REMARK   15  A    between atoms: _33  and  _36
REMARK   16  A    between atoms: _36  and  _37
REMARK   17  A    between atoms: _37  and  _38
REMARK   18  A    between atoms: _41  and  _43
REMARK   19  A    between atoms: _43  and  _44
REMARK   20  A    between atoms: _43  and  _46
REMARK   21  A    between atoms: _46  and  _47
REMARK   22  A    between atoms: _50  and  _52
REMARK   23  A    between atoms: _52  and  _53
REMARK   24  A    between atoms: _52  and  _55
REMARK   25  A    between atoms: _55  and  _56
REMARK   26  A    between atoms: _59  and  _61
REMARK   27  A    between atoms: _61  and  _62
REMARK   28  A    between atoms: _61  and  _64
REMARK   29  A    between atoms: _64  and  _65
REMARK   30  A    between atoms: _67  and  _69
REMARK   31  A    between atoms: _69  and  _70
REMARK   32  A    between atoms: _69  and  _72
REMARK   33  A    between atoms: _72  and  _73
REMARK   34  A    between atoms: _78  and  _80
REMARK   35  A    between atoms: _80  and  _81
REMARK   36  A    between atoms: _80  and  _83
REMARK   37  A    between atoms: _83  and  _84
REMARK   38  A    between atoms: _86  and  _88
REMARK   39  A    between atoms: _88  and  _89
REMARK   40  A    between atoms: _88  and  _91
REMARK   41  A    between atoms: _91  and  _92
REMARK   42  A    between atoms: _94  and  _96
REMARK   43  A    between atoms: _96  and  _97
REMARK   44  A    between atoms: _96  and  _99
REMARK   45  A    between atoms: _99  and  _100
REMARK   46  A    between atoms: _103  and  _105
REMARK   47  A    between atoms: _105  and  _106
REMARK   48  A    between atoms: _109  and  _111
REMARK   49  A    between atoms: _111  and  _112
REMARK   50  A    between atoms: _111  and  _114
REMARK   51  A    between atoms: _114  and  _115
REMARK   52  A    between atoms: _118  and  _120
REMARK   53  A    between atoms: _120  and  _121
REMARK   54  A    between atoms: _120  and  _123
REMARK   55  A    between atoms: _123  and  _124
REMARK   56  A    between atoms: _124  and  _125
REMARK   57  A    between atoms: _125  and  _126
REMARK   58  A    between atoms: _126  and  _127
REMARK   59  A    between atoms: _131  and  _133
REMARK   60  A    between atoms: _133  and  _134
REMARK   61  A    between atoms: _133  and  _136
REMARK   62  A    between atoms: _136  and  _137
REMARK   63  A    between atoms: _140  and  _142
REMARK   64  A    between atoms: _142  and  _143
REMARK   65  A    between atoms: _142  and  _145
REMARK   66  A    between atoms: _145  and  _146
REMARK   67  A    between atoms: _149  and  _151
REMARK   68  A    between atoms: _151  and  _152
REMARK   69  A    between atoms: _151  and  _154
REMARK   70  A    between atoms: _157  and  _159
REMARK   71  A    between atoms: _159  and  _160
REMARK   72  A    between atoms: _159  and  _162
REMARK   73  A    between atoms: _162  and  _163
REMARK   74  A    between atoms: _166  and  _168
REMARK   75  A    between atoms: _168  and  _169
REMARK   76  A    between atoms: _168  and  _171
REMARK   77  A    between atoms: _171  and  _172
REMARK   78  A    between atoms: _175  and  _177
REMARK   79  A    between atoms: _177  and  _178
REMARK   80  A    between atoms: _180  and  _182
REMARK   81  A    between atoms: _182  and  _183
REMARK   82  A    between atoms: _182  and  _185
REMARK   83  A    between atoms: _185  and  _186
REMARK   84  A    between atoms: _189  and  _191
REMARK   85  A    between atoms: _191  and  _192
REMARK   86  A    between atoms: _194  and  _196
REMARK   87  A    between atoms: _196  and  _197
REMARK   88  A    between atoms: _196  and  _199
REMARK   89  A    between atoms: _199  and  _200
REMARK   90  A    between atoms: _200  and  _201
REMARK   91  A    between atoms: _203  and  _205
REMARK   92  A    between atoms: _205  and  _206
REMARK   93  A    between atoms: _205  and  _208
REMARK   94  A    between atoms: _208  and  _209
REMARK   95  A    between atoms: _212  and  _214
REMARK   96  A    between atoms: _214  and  _215
REMARK   97  A    between atoms: _214  and  _217
REMARK   98  A    between atoms: _217  and  _218
REMARK   99  A    between atoms: _221  and  _223
REMARK  100  A    between atoms: _223  and  _224
REMARK  101  A    between atoms: _223  and  _226
REMARK  102  A    between atoms: _226  and  _227
REMARK  103  A    between atoms: _230  and  _232
REMARK  104  A    between atoms: _232  and  _233
REMARK  105  A    between atoms: _232  and  _235
REMARK  106  A    between atoms: _235  and  _236
REMARK  107  A    between atoms: _239  and  _241
REMARK  108  A    between atoms: _241  and  _242
REMARK  109  A    between atoms: _241  and  _244
REMARK  110  A    between atoms: _244  and  _245
REMARK  111  A    between atoms: _250  and  _252
REMARK  112  A    between atoms: _252  and  _253
REMARK  113  A    between atoms: _252  and  _255
REMARK  114  A    between atoms: _255  and  _256
REMARK  115  A    between atoms: _259  and  _261
REMARK  116  A    between atoms: _261  and  _262
REMARK  117  A    between atoms: _264  and  _266
REMARK  118  A    between atoms: _266  and  _267
REMARK  119  A    between atoms: _266  and  _269
REMARK  120  A    between atoms: _269  and  _270
REMARK  121  A    between atoms: _273  and  _275
REMARK  122  A    between atoms: _275  and  _276
REMARK  123  A    between atoms: _275  and  _278
REMARK  124  A    between atoms: _278  and  _279
REMARK  125  A    between atoms: _282  and  _284
REMARK  126  A    between atoms: _284  and  _285
REMARK  127  A    between atoms: _288  and  _290
REMARK  128  A    between atoms: _290  and  _291
REMARK  129  A    between atoms: _290  and  _293
REMARK  130  A    between atoms: _293  and  _294
REMARK  131  A    between atoms: _294  and  _295
REMARK  132  A    between atoms: _295  and  _296
REMARK  133  A    between atoms: _296  and  _297
REMARK  134  A    between atoms: _301  and  _303
REMARK  135  A    between atoms: _303  and  _304
REMARK  136  A    between atoms: _303  and  _306
REMARK  137  A    between atoms: _306  and  _307
REMARK  138  A    between atoms: _310  and  _312
REMARK  139  A    between atoms: _312  and  _313
REMARK  140  A    between atoms: _315  and  _317
REMARK  141  A    between atoms: _317  and  _318
REMARK  142  A    between atoms: _317  and  _320
REMARK  143  A    between atoms: _323  and  _325
REMARK  144  A    between atoms: _325  and  _326
REMARK  145  A    between atoms: _328  and  _330
REMARK  146  A    between atoms: _330  and  _331
REMARK  147  A    between atoms: _330  and  _333
REMARK  148  A    between atoms: _333  and  _334
REMARK  149  A    between atoms: _340  and  _342
REMARK  150  A    between atoms: _342  and  _343
REMARK  151  A    between atoms: _342  and  _345
REMARK  152  A    between atoms: _345  and  _346
REMARK  153  A    between atoms: _351  and  _352
REMARK  154  A    between atoms: _354  and  _356
REMARK  155  A    between atoms: _356  and  _357
REMARK  156  A    between atoms: _356  and  _359
REMARK  157  A    between atoms: _359  and  _360
REMARK  158  A    between atoms: _365  and  _366
REMARK  159  A    between atoms: _368  and  _370
REMARK  160  A    between atoms: _370  and  _371
REMARK  161  A    between atoms: _370  and  _373
REMARK  162  A    between atoms: _376  and  _378
REMARK  163  A    between atoms: _378  and  _379
REMARK  164  A    between atoms: _378  and  _381
REMARK  165  A    between atoms: _381  and  _382
REMARK  166  A    between atoms: _385  and  _387
REMARK  167  A    between atoms: _387  and  _388
REMARK  168  A    between atoms: _387  and  _390
REMARK  169  A    between atoms: _393  and  _395
REMARK  170  A    between atoms: _395  and  _396
REMARK  171  A    between atoms: _395  and  _398
REMARK  172  A    between atoms: _398  and  _399
REMARK  173  A    between atoms: _402  and  _404
REMARK  174  A    between atoms: _404  and  _405
REMARK  175  A    between atoms: _404  and  _407
REMARK  176  A    between atoms: _407  and  _408
REMARK  177  A    between atoms: _411  and  _413
REMARK  178  A    between atoms: _413  and  _414
REMARK  179  A    between atoms: _413  and  _416
REMARK  180  A    between atoms: _416  and  _417
REMARK  181  A    between atoms: _417  and  _418
REMARK  182  A    between atoms: _418  and  _419
REMARK  183  A    between atoms: _419  and  _420
REMARK  184  A    between atoms: _424  and  _426
REMARK  185  A    between atoms: _426  and  _427
REMARK  186  A    between atoms: _426  and  _429
REMARK  187  A    between atoms: _429  and  _430
REMARK  188  A    between atoms: _435  and  _437
REMARK  189  A    between atoms: _437  and  _438
REMARK  190  A    between atoms: _441  and  _443
REMARK  191  A    between atoms: _443  and  _444
REMARK  192  A    between atoms: _443  and  _446
REMARK  193  A    between atoms: _446  and  _447
REMARK  194  A    between atoms: _457  and  _459
REMARK  195  A    between atoms: _459  and  _460
REMARK  196  A    between atoms: _459  and  _462
REMARK  197  A    between atoms: _462  and  _463
REMARK  198  A    between atoms: _463  and  _464
REMARK  199  A    between atoms: _467  and  _469
REMARK  200  A    between atoms: _469  and  _470
REMARK  201  A    between atoms: _469  and  _472
REMARK  202  A    between atoms: _472  and  _473
REMARK  203  A    between atoms: _475  and  _477
REMARK  204  A    between atoms: _477  and  _478
REMARK  205  A    between atoms: _477  and  _480
REMARK  206  A    between atoms: _480  and  _481
REMARK  207  A    between atoms: _487  and  _489
REMARK  208  A    between atoms: _489  and  _490
REMARK  209  A    between atoms: _489  and  _492
REMARK  210  A    between atoms: _492  and  _493
REMARK  211  A    between atoms: _496  and  _498
REMARK  212  A    between atoms: _498  and  _499
REMARK  213  A    between atoms: _498  and  _501
REMARK  214  A    between atoms: _504  and  _506
REMARK  215  A    between atoms: _506  and  _507
REMARK  216  A    between atoms: _509  and  _511
REMARK  217  A    between atoms: _511  and  _512
REMARK  218  A    between atoms: _511  and  _514
REMARK  219  A    between atoms: _514  and  _515
REMARK  220  A    between atoms: _518  and  _520
REMARK  221  A    between atoms: _520  and  _521
REMARK  222  A    between atoms: _520  and  _523
REMARK  223  A    between atoms: _523  and  _524
REMARK  224  A    between atoms: _524  and  _525
REMARK  225  A    between atoms: _525  and  _526
REMARK  226  A    between atoms: _526  and  _527
REMARK  227  A    between atoms: _531  and  _533
REMARK  228  A    between atoms: _533  and  _534
REMARK  229  A    between atoms: _533  and  _536
REMARK  230  A    between atoms: _539  and  _541
REMARK  231  A    between atoms: _541  and  _542
REMARK  232  A    between atoms: _541  and  _544
REMARK  233  A    between atoms: _544  and  _545
REMARK  234  A    between atoms: _550  and  _551
REMARK                            x       y       z     vdW  Elec       q    Type
REMARK                         _______ _______ _______ _____ _____    ______ ____
ROOT
ATOM      1  CA  TRP A   2       4.647  20.994  28.788  0.00  0.00    +0.153 C 
ENDROOT
BRANCH   1   4
ATOM      2  C   ALA A   1       3.165  21.955  30.526  0.00  0.00    +0.238 C 
ATOM      3  O   ALA A   1       4.074  22.434  31.211  0.00  0.00    -0.274 OA
ATOM      4  N   TRP A   2       3.354  21.206  29.438  0.00  0.00    -0.297 N 
ATOM      5  H   TRP A   2       2.522  20.740  29.022  0.00  0.00    +0.150 HD
BRANCH   2   6
ATOM      6  CA  ALA A   1       1.719  22.171  30.924  0.00  0.00    +0.145 C 
ATOM      7  CB  ALA A   1       1.357  23.638  30.818  0.00  0.00    +0.028 C 
BRANCH   6   8
ATOM      8  N   ALA A   1       1.547  21.686  32.287  0.00  0.00    -0.238 NA
ATOM      9  H   ALA A   1       2.059  22.157  33.060  0.00  0.00    +0.142 HD
ENDBRANCH   6   8
ENDBRANCH   2   6
ENDBRANCH   1   4
BRANCH   1  10
ATOM     10  C   TRP A   2       4.651  21.866  27.556  0.00  0.00    +0.241 C 
ATOM     11  N   GLU A   3       5.790  22.449  27.206  0.00  0.00    -0.297 N 
ATOM     12  H   GLU A   3       6.645  22.317  27.784  0.00  0.00    +0.150 HD
ATOM     13  O   TRP A   2       3.614  22.037  26.905  0.00  0.00    -0.273 OA
BRANCH  11  14
ATOM     14  CA  GLU A   3       5.835  23.275  26.007  0.00  0.00    +0.149 C 
BRANCH  14  15
ATOM     15  C   GLU A   3       7.204  23.276  25.368  0.00  0.00    +0.241 C 
ATOM     16  O   GLU A   3       8.219  23.290  26.071  0.00  0.00    -0.273 OA
ATOM     17  N   SER A   4       7.241  23.258  24.031  0.00  0.00    -0.296 N 
ATOM     18  H   SER A   4       6.363  23.134  23.487  0.00  0.00    +0.150 HD
BRANCH  17  19
ATOM     19  CA  SER A   4       8.515  23.412  23.336  0.00  0.00    +0.166 C 
BRANCH  19  20
ATOM     20  C   SER A   4       8.352  23.969  21.929  0.00  0.00    +0.229 C 
ATOM     21  O   SER A   4       7.444  23.568  21.192  0.00  0.00    -0.286 OA
ENDBRANCH  19  20
BRANCH  19  22
ATOM     22  CB  SER A   4       9.293  22.090  23.296  0.00  0.00    +0.165 C 
BRANCH  22  23
ATOM     23  OG  SER A   4      10.538  22.270  22.623  0.00  0.00    -0.380 OA
ATOM     24  H   SER A   4      11.076  22.949  23.103  0.00  0.00    +0.211 HD
ENDBRANCH  22  23
ENDBRANCH  19  22
ENDBRANCH  17  19
ENDBRANCH  14  15
BRANCH  14  25
ATOM     25  CB  GLU A   3       5.397  24.704  26.329  0.00  0.00    +0.041 C 
BRANCH  25  26
ATOM     26  CG  GLU A   3       5.179  25.588  25.122  0.00  0.00    +0.116 C 
BRANCH  26  27
ATOM     27  CD  GLU A   3       4.461  26.864  25.498  0.00  0.00    +0.365 C 
ATOM     28  OE2 GLU A   3       5.093  27.722  26.156  0.00  0.00    -0.246 OA
ATOM     29  OE1 GLU A   3       3.269  26.996  25.145  0.00  0.00    -0.246 OA
ENDBRANCH  26  27
ENDBRANCH  25  26
ENDBRANCH  14  25
ENDBRANCH  11  14
ENDBRANCH   1  10
BRANCH   1  30
ATOM     30  CB  TRP A   2       4.742  19.506  28.429  0.00  0.00    +0.057 C 
BRANCH  30  31
ATOM     31  CG  TRP A   2       5.948  19.024  27.658  0.00  0.00    -0.002 A 
ATOM     32  CD1 TRP A   2       7.032  18.293  28.146  0.00  0.00    +0.068 A 
ATOM     33  NE1 TRP A   2       7.924  18.001  27.135  0.00  0.00    -0.352 N 
ATOM     34  HE1 TRP A   2       8.806  17.464  27.260  0.00  0.00    +0.166 HD
ATOM     35  CE2 TRP A   2       7.492  18.509  25.961  0.00  0.00    +0.056 A 
ATOM     36  CZ2 TRP A   2       8.056  18.465  24.687  0.00  0.00    +0.017 A 
ATOM     37  CH2 TRP A   2       7.346  19.093  23.654  0.00  0.00    +0.001 A 
ATOM     38  CZ3 TRP A   2       6.125  19.741  23.883  0.00  0.00    +0.000 A 
ATOM     39  CE3 TRP A   2       5.541  19.790  25.162  0.00  0.00    +0.001 A 
ATOM     40  CD2 TRP A   2       6.211  19.180  26.222  0.00  0.00    +0.013 A 
ENDBRANCH  30  31
ENDBRANCH   1  30
TORSDOF 15
REMARK  Name = ../refined-set-2016/4cwn/4cwn_pocket.pdb
REMARK  234 active torsions:
REMARK  status: ('A' for Active; 'I' for Inactive)
REMARK    1  A    between atoms: _1  and  _3
REMARK    2  A    between atoms: _3  and  _4
REMARK    3  A    between atoms: _3  and  _6
REMARK    4  A    between atoms: _6  and  _7
REMARK    5  A    between atoms: _13  and  _15
REMARK    6  A    between atoms: _15  and  _16
REMARK    7  A    between atoms: _15  and  _18
REMARK    8  A    between atoms: _18  and  _19
REMARK    9  A    between atoms: _22  and  _24
REMARK   10  A    between atoms: _24  and  _25
REMARK   11  A    between atoms: _24  and  _27
REMARK   12  A    between atoms: _27  and  _28
REMARK   13  A    between atoms: _31  and  _33
REMARK   14  A    between atoms: _33  and  _34
REMARK   15  A    between atoms: _33  and  _36
REMARK   16  A    between atoms: _36  and  _37
REMARK   17  A    between atoms: _37  and  _38
REMARK   18  A    between atoms: _41  and  _43
REMARK   19  A    between atoms: _43  and  _44
REMARK   20  A    between atoms: _43  and  _46
REMARK   21  A    between atoms: _46  and  _47
REMARK   22  A    between atoms: _50  and  _52
REMARK   23  A    between atoms: _52  and  _53
REMARK   24  A    between atoms: _52  and  _55
REMARK   25  A    between atoms: _55  and  _56
REMARK   26  A    between atoms: _59  and  _61
REMARK   27  A    between atoms: _61  and  _62
REMARK   28  A    between atoms: _61  and  _64
REMARK   29  A    between atoms: _64  and  _65
REMARK   30  A    between atoms: _67  and  _69
REMARK   31  A    between atoms: _69  and  _70
REMARK   32  A    between atoms: _69  and  _72
REMARK   33  A    between atoms: _72  and  _73
REMARK   34  A    between atoms: _78  and  _80
REMARK   35  A    between atoms: _80  and  _81
REMARK   36  A    between atoms: _80  and  _83
REMARK   37  A    between atoms: _83  and  _84
REMARK   38  A    between atoms: _86  and  _88
REMARK   39  A    between atoms: _88  and  _89
REMARK   40  A    between atoms: _88  and  _91
REMARK   41  A    between atoms: _91  and  _92
REMARK   42  A    between atoms: _94  and  _96
REMARK   43  A    between atoms: _96  and  _97
REMARK   44  A    between atoms: _96  and  _99
REMARK   45  A    between atoms: _99  and  _100
REMARK   46  A    between atoms: _103  and  _105
REMARK   47  A    between atoms: _105  and  _106
REMARK   48  A    between atoms: _109  and  _111
REMARK   49  A    between atoms: _111  and  _112
REMARK   50  A    between atoms: _111  and  _114
REMARK   51  A    between atoms: _114  and  _115
REMARK   52  A    between atoms: _118  and  _120
REMARK   53  A    between atoms: _120  and  _121
REMARK   54  A    between atoms: _120  and  _123
REMARK   55  A    between atoms: _123  and  _124
REMARK   56  A    between atoms: _124  and  _125
REMARK   57  A    between atoms: _125  and  _126
REMARK   58  A    between atoms: _126  and  _127
REMARK   59  A    between atoms: _131  and  _133
REMARK   60  A    between atoms: _133  and  _134
REMARK   61  A    between atoms: _133  and  _136
REMARK   62  A    between atoms: _136  and  _137
REMARK   63  A    between atoms: _140  and  _142
REMARK   64  A    between atoms: _142  and  _143
REMARK   65  A    between atoms: _142  and  _145
REMARK   66  A    between atoms: _145  and  _146
REMARK   67  A    between atoms: _149  and  _151
REMARK   68  A    between atoms: _151  and  _152
REMARK   69  A    between atoms: _151  and  _154
REMARK   70  A    between atoms: _157  and  _159
REMARK   71  A    between atoms: _159  and  _160
REMARK   72  A    between atoms: _159  and  _162
REMARK   73  A    between atoms: _162  and  _163
REMARK   74  A    between atoms: _166  and  _168
REMARK   75  A    between atoms: _168  and  _169
REMARK   76  A    between atoms: _168  and  _171
REMARK   77  A    between atoms: _171  and  _172
REMARK   78  A    between atoms: _175  and  _177
REMARK   79  A    between atoms: _177  and  _178
REMARK   80  A    between atoms: _180  and  _182
REMARK   81  A    between atoms: _182  and  _183
REMARK   82  A    between atoms: _182  and  _185
REMARK   83  A    between atoms: _185  and  _186
REMARK   84  A    between atoms: _189  and  _191
REMARK   85  A    between atoms: _191  and  _192
REMARK   86  A    between atoms: _194  and  _196
REMARK   87  A    between atoms: _196  and  _197
REMARK   88  A    between atoms: _196  and  _199
REMARK   89  A    between atoms: _199  and  _200
REMARK   90  A    between atoms: _200  and  _201
REMARK   91  A    between atoms: _203  and  _205
REMARK   92  A    between atoms: _205  and  _206
REMARK   93  A    between atoms: _205  and  _208
REMARK   94  A    between atoms: _208  and  _209
REMARK   95  A    between atoms: _212  and  _214
REMARK   96  A    between atoms: _214  and  _215
REMARK   97  A    between atoms: _214  and  _217
REMARK   98  A    between atoms: _217  and  _218
REMARK   99  A    between atoms: _221  and  _223
REMARK  100  A    between atoms: _223  and  _224
REMARK  101  A    between atoms: _223  and  _226
REMARK  102  A    between atoms: _226  and  _227
REMARK  103  A    between atoms: _230  and  _232
REMARK  104  A    between atoms: _232  and  _233
REMARK  105  A    between atoms: _232  and  _235
REMARK  106  A    between atoms: _235  and  _236
REMARK  107  A    between atoms: _239  and  _241
REMARK  108  A    between atoms: _241  and  _242
REMARK  109  A    between atoms: _241  and  _244
REMARK  110  A    between atoms: _244  and  _245
REMARK  111  A    between atoms: _250  and  _252
REMARK  112  A    between atoms: _252  and  _253
REMARK  113  A    between atoms: _252  and  _255
REMARK  114  A    between atoms: _255  and  _256
REMARK  115  A    between atoms: _259  and  _261
REMARK  116  A    between atoms: _261  and  _262
REMARK  117  A    between atoms: _264  and  _266
REMARK  118  A    between atoms: _266  and  _267
REMARK  119  A    between atoms: _266  and  _269
REMARK  120  A    between atoms: _269  and  _270
REMARK  121  A    between atoms: _273  and  _275
REMARK  122  A    between atoms: _275  and  _276
REMARK  123  A    between atoms: _275  and  _278
REMARK  124  A    between atoms: _278  and  _279
REMARK  125  A    between atoms: _282  and  _284
REMARK  126  A    between atoms: _284  and  _285
REMARK  127  A    between atoms: _288  and  _290
REMARK  128  A    between atoms: _290  and  _291
REMARK  129  A    between atoms: _290  and  _293
REMARK  130  A    between atoms: _293  and  _294
REMARK  131  A    between atoms: _294  and  _295
REMARK  132  A    between atoms: _295  and  _296
REMARK  133  A    between atoms: _296  and  _297
REMARK  134  A    between atoms: _301  and  _303
REMARK  135  A    between atoms: _303  and  _304
REMARK  136  A    between atoms: _303  and  _306
REMARK  137  A    between atoms: _306  and  _307
REMARK  138  A    between atoms: _310  and  _312
REMARK  139  A    between atoms: _312  and  _313
REMARK  140  A    between atoms: _315  and  _317
REMARK  141  A    between atoms: _317  and  _318
REMARK  142  A    between atoms: _317  and  _320
REMARK  143  A    between atoms: _323  and  _325
REMARK  144  A    between atoms: _325  and  _326
REMARK  145  A    between atoms: _328  and  _330
REMARK  146  A    between atoms: _330  and  _331
REMARK  147  A    between atoms: _330  and  _333
REMARK  148  A    between atoms: _333  and  _334
REMARK  149  A    between atoms: _340  and  _342
REMARK  150  A    between atoms: _342  and  _343
REMARK  151  A    between atoms: _342  and  _345
REMARK  152  A    between atoms: _345  and  _346
REMARK  153  A    between atoms: _351  and  _352
REMARK  154  A    between atoms: _354  and  _356
REMARK  155  A    between atoms: _356  and  _357
REMARK  156  A    between atoms: _356  and  _359
REMARK  157  A    between atoms: _359  and  _360
REMARK  158  A    between atoms: _365  and  _366
REMARK  159  A    between atoms: _368  and  _370
REMARK  160  A    between atoms: _370  and  _371
REMARK  161  A    between atoms: _370  and  _373
REMARK  162  A    between atoms: _376  and  _378
REMARK  163  A    between atoms: _378  and  _379
REMARK  164  A    between atoms: _378  and  _381
REMARK  165  A    between atoms: _381  and  _382
REMARK  166  A    between atoms: _385  and  _387
REMARK  167  A    between atoms: _387  and  _388
REMARK  168  A    between atoms: _387  and  _390
REMARK  169  A    between atoms: _393  and  _395
REMARK  170  A    between atoms: _395  and  _396
REMARK  171  A    between atoms: _395  and  _398
REMARK  172  A    between atoms: _398  and  _399
REMARK  173  A    between atoms: _402  and  _404
REMARK  174  A    between atoms: _404  and  _405
REMARK  175  A    between atoms: _404  and  _407
REMARK  176  A    between atoms: _407  and  _408
REMARK  177  A    between atoms: _411  and  _413
REMARK  178  A    between atoms: _413  and  _414
REMARK  179  A    between atoms: _413  and  _416
REMARK  180  A    between atoms: _416  and  _417
REMARK  181  A    between atoms: _417  and  _418
REMARK  182  A    between atoms: _418  and  _419
REMARK  183  A    between atoms: _419  and  _420
REMARK  184  A    between atoms: _424  and  _426
REMARK  185  A    between atoms: _426  and  _427
REMARK  186  A    between atoms: _426  and  _429
REMARK  187  A    between atoms: _429  and  _430
REMARK  188  A    between atoms: _435  and  _437
REMARK  189  A    between atoms: _437  and  _438
REMARK  190  A    between atoms: _441  and  _443
REMARK  191  A    between atoms: _443  and  _444
REMARK  192  A    between atoms: _443  and  _446
REMARK  193  A    between atoms: _446  and  _447
REMARK  194  A    between atoms: _457  and  _459
REMARK  195  A    between atoms: _459  and  _460
REMARK  196  A    between atoms: _459  and  _462
REMARK  197  A    between atoms: _462  and  _463
REMARK  198  A    between atoms: _463  and  _464
REMARK  199  A    between atoms: _467  and  _469
REMARK  200  A    between atoms: _469  and  _470
REMARK  201  A    between atoms: _469  and  _472
REMARK  202  A    between atoms: _472  and  _473
REMARK  203  A    between atoms: _475  and  _477
REMARK  204  A    between atoms: _477  and  _478
REMARK  205  A    between atoms: _477  and  _480
REMARK  206  A    between atoms: _480  and  _481
REMARK  207  A    between atoms: _487  and  _489
REMARK  208  A    between atoms: _489  and  _490
REMARK  209  A    between atoms: _489  and  _492
REMARK  210  A    between atoms: _492  and  _493
REMARK  211  A    between atoms: _496  and  _498
REMARK  212  A    between atoms: _498  and  _499
REMARK  213  A    between atoms: _498  and  _501
REMARK  214  A    between atoms: _504  and  _506
REMARK  215  A    between atoms: _506  and  _507
REMARK  216  A    between atoms: _509  and  _511
REMARK  217  A    between atoms: _511  and  _512
REMARK  218  A    between atoms: _511  and  _514
REMARK  219  A    between atoms: _514  and  _515
REMARK  220  A    between atoms: _518  and  _520
REMARK  221  A    between atoms: _520  and  _521
REMARK  222  A    between atoms: _520  and  _523
REMARK  223  A    between atoms: _523  and  _524
REMARK  224  A    between atoms: _524  and  _525
REMARK  225  A    between atoms: _525  and  _526
REMARK  226  A    between atoms: _526  and  _527
REMARK  227  A    between atoms: _531  and  _533
REMARK  228  A    between atoms: _533  and  _534
REMARK  229  A    between atoms: _533  and  _536
REMARK  230  A    between atoms: _539  and  _541
REMARK  231  A    between atoms: _541  and  _542
REMARK  232  A    between atoms: _541  and  _544
REMARK  233  A    between atoms: _544  and  _545
REMARK  234  A    between atoms: _550  and  _551
REMARK                            x       y       z     vdW  Elec       q    Type
REMARK                         _______ _______ _______ _____ _____    ______ ____
ROOT
ATOM      1  CA  THR A   2       9.443  23.741  29.750  0.00  0.00    +0.176 C 
ENDROOT
BRANCH   1   4
ATOM      2  C   PHE A   1      11.027  22.882  28.136  0.00  0.00    +0.239 C 
ATOM      3  O   PHE A   1      11.941  22.884  28.970  0.00  0.00    -0.274 OA
ATOM      4  N   THR A   2       9.786  23.281  28.406  0.00  0.00    -0.295 N 
ATOM      5  H   THR A   2       9.061  23.265  27.661  0.00  0.00    +0.150 HD
BRANCH   2   6
ATOM      6  CA  PHE A   1      11.277  22.387  26.724  0.00  0.00    +0.149 C 
BRANCH   6   7
ATOM      7  N   PHE A   1      12.706  22.391  26.429  0.00  0.00    -0.238 NA
ATOM      8  H   PHE A   1      13.363  22.042  27.155  0.00  0.00    +0.142 HD
ENDBRANCH   6   7
BRANCH   6   9
ATOM      9  CB  PHE A   1      10.656  21.004  26.524  0.00  0.00    +0.053 C 
BRANCH   9  10
ATOM     10  CG  PHE A   1      11.167  19.930  27.457  0.00  0.00    -0.020 A 
ATOM     11  CD2 PHE A   1      10.465  19.593  28.626  0.00  0.00    -0.004 A 
ATOM     12  CE2 PHE A   1      10.923  18.571  29.458  0.00  0.00    -0.000 A 
ATOM     13  CZ  PHE A   1      12.075  17.863  29.126  0.00  0.00    -0.000 A 
ATOM     14  CE1 PHE A   1      12.776  18.186  27.969  0.00  0.00    -0.000 A 
ATOM     15  CD1 PHE A   1      12.322  19.209  27.142  0.00  0.00    -0.004 A 
ENDBRANCH   9  10
ENDBRANCH   6   9
ENDBRANCH   2   6
ENDBRANCH   1   4
BRANCH   1  16
ATOM     16  C   THR A   2       8.333  22.899  30.339  0.00  0.00    +0.243 C 
ATOM     17  N   VAL A   3       8.309  22.803  31.666  0.00  0.00    -0.298 N 
ATOM     18  H   VAL A   3       9.106  23.183  32.216  0.00  0.00    +0.150 HD
ATOM     19  O   THR A   2       7.522  22.343  29.600  0.00  0.00    -0.273 OA
BRANCH  17  20
ATOM     20  CA  VAL A   3       7.191  22.177  32.372  0.00  0.00    +0.137 C 
BRANCH  20  21
ATOM     21  CB  VAL A   3       7.542  20.777  32.927  0.00  0.00    +0.026 C 
ATOM     22  CG2 VAL A   3       6.340  20.168  33.653  0.00  0.00    +0.002 C 
ATOM     23  CG1 VAL A   3       7.989  19.843  31.816  0.00  0.00    +0.002 C 
ENDBRANCH  20  21
BRANCH  20  24
ATOM     24  C   VAL A   3       6.796  23.102  33.515  0.00  0.00    +0.227 C 
ATOM     25  O   VAL A   3       7.659  23.605  34.234  0.00  0.00    -0.286 OA
ENDBRANCH  20  24
ENDBRANCH  17  20
ENDBRANCH   1  16
BRANCH   1  26
ATOM     26  CB  THR A   2       9.019  25.219  29.774  0.00  0.00    +0.137 C 
ATOM     27  CG2 THR A   2      10.142  26.116  29.238  0.00  0.00    +0.034 C 
BRANCH  26  28
ATOM     28  OG1 THR A   2       7.825  25.403  28.995  0.00  0.00    -0.382 OA
ATOM     29  HG1 THR A   2       7.097  24.849  29.374  0.00  0.00    +0.210 HD
ENDBRANCH  26  28
ENDBRANCH   1  26
TORSDOF 11
REMARK  Name = ../refined-set-2016/4cwn/4cwn_pocket.pdb
REMARK  234 active torsions:
REMARK  status: ('A' for Active; 'I' for Inactive)
REMARK    1  A    between atoms: _1  and  _3
REMARK    2  A    between atoms: _3  and  _4
REMARK    3  A    between atoms: _3  and  _6
REMARK    4  A    between atoms: _6  and  _7
REMARK    5  A    between atoms: _13  and  _15
REMARK    6  A    between atoms: _15  and  _16
REMARK    7  A    between atoms: _15  and  _18
REMARK    8  A    between atoms: _18  and  _19
REMARK    9  A    between atoms: _22  and  _24
REMARK   10  A    between atoms: _24  and  _25
REMARK   11  A    between atoms: _24  and  _27
REMARK   12  A    between atoms: _27  and  _28
REMARK   13  A    between atoms: _31  and  _33
REMARK   14  A    between atoms: _33  and  _34
REMARK   15  A    between atoms: _33  and  _36
REMARK   16  A    between atoms: _36  and  _37
REMARK   17  A    between atoms: _37  and  _38
REMARK   18  A    between atoms: _41  and  _43
REMARK   19  A    between atoms: _43  and  _44
REMARK   20  A    between atoms: _43  and  _46
REMARK   21  A    between atoms: _46  and  _47
REMARK   22  A    between atoms: _50  and  _52
REMARK   23  A    between atoms: _52  and  _53
REMARK   24  A    between atoms: _52  and  _55
REMARK   25  A    between atoms: _55  and  _56
REMARK   26  A    between atoms: _59  and  _61
REMARK   27  A    between atoms: _61  and  _62
REMARK   28  A    between atoms: _61  and  _64
REMARK   29  A    between atoms: _64  and  _65
REMARK   30  A    between atoms: _67  and  _69
REMARK   31  A    between atoms: _69  and  _70
REMARK   32  A    between atoms: _69  and  _72
REMARK   33  A    between atoms: _72  and  _73
REMARK   34  A    between atoms: _78  and  _80
REMARK   35  A    between atoms: _80  and  _81
REMARK   36  A    between atoms: _80  and  _83
REMARK   37  A    between atoms: _83  and  _84
REMARK   38  A    between atoms: _86  and  _88
REMARK   39  A    between atoms: _88  and  _89
REMARK   40  A    between atoms: _88  and  _91
REMARK   41  A    between atoms: _91  and  _92
REMARK   42  A    between atoms: _94  and  _96
REMARK   43  A    between atoms: _96  and  _97
REMARK   44  A    between atoms: _96  and  _99
REMARK   45  A    between atoms: _99  and  _100
REMARK   46  A    between atoms: _103  and  _105
REMARK   47  A    between atoms: _105  and  _106
REMARK   48  A    between atoms: _109  and  _111
REMARK   49  A    between atoms: _111  and  _112
REMARK   50  A    between atoms: _111  and  _114
REMARK   51  A    between atoms: _114  and  _115
REMARK   52  A    between atoms: _118  and  _120
REMARK   53  A    between atoms: _120  and  _121
REMARK   54  A    between atoms: _120  and  _123
REMARK   55  A    between atoms: _123  and  _124
REMARK   56  A    between atoms: _124  and  _125
REMARK   57  A    between atoms: _125  and  _126
REMARK   58  A    between atoms: _126  and  _127
REMARK   59  A    between atoms: _131  and  _133
REMARK   60  A    between atoms: _133  and  _134
REMARK   61  A    between atoms: _133  and  _136
REMARK   62  A    between atoms: _136  and  _137
REMARK   63  A    between atoms: _140  and  _142
REMARK   64  A    between atoms: _142  and  _143
REMARK   65  A    between atoms: _142  and  _145
REMARK   66  A    between atoms: _145  and  _146
REMARK   67  A    between atoms: _149  and  _151
REMARK   68  A    between atoms: _151  and  _152
REMARK   69  A    between atoms: _151  and  _154
REMARK   70  A    between atoms: _157  and  _159
REMARK   71  A    between atoms: _159  and  _160
REMARK   72  A    between atoms: _159  and  _162
REMARK   73  A    between atoms: _162  and  _163
REMARK   74  A    between atoms: _166  and  _168
REMARK   75  A    between atoms: _168  and  _169
REMARK   76  A    between atoms: _168  and  _171
REMARK   77  A    between atoms: _171  and  _172
REMARK   78  A    between atoms: _175  and  _177
REMARK   79  A    between atoms: _177  and  _178
REMARK   80  A    between atoms: _180  and  _182
REMARK   81  A    between atoms: _182  and  _183
REMARK   82  A    between atoms: _182  and  _185
REMARK   83  A    between atoms: _185  and  _186
REMARK   84  A    between atoms: _189  and  _191
REMARK   85  A    between atoms: _191  and  _192
REMARK   86  A    between atoms: _194  and  _196
REMARK   87  A    between atoms: _196  and  _197
REMARK   88  A    between atoms: _196  and  _199
REMARK   89  A    between atoms: _199  and  _200
REMARK   90  A    between atoms: _200  and  _201
REMARK   91  A    between atoms: _203  and  _205
REMARK   92  A    between atoms: _205  and  _206
REMARK   93  A    between atoms: _205  and  _208
REMARK   94  A    between atoms: _208  and  _209
REMARK   95  A    between atoms: _212  and  _214
REMARK   96  A    between atoms: _214  and  _215
REMARK   97  A    between atoms: _214  and  _217
REMARK   98  A    between atoms: _217  and  _218
REMARK   99  A    between atoms: _221  and  _223
REMARK  100  A    between atoms: _223  and  _224
REMARK  101  A    between atoms: _223  and  _226
REMARK  102  A    between atoms: _226  and  _227
REMARK  103  A    between atoms: _230  and  _232
REMARK  104  A    between atoms: _232  and  _233
REMARK  105  A    between atoms: _232  and  _235
REMARK  106  A    between atoms: _235  and  _236
REMARK  107  A    between atoms: _239  and  _241
REMARK  108  A    between atoms: _241  and  _242
REMARK  109  A    between atoms: _241  and  _244
REMARK  110  A    between atoms: _244  and  _245
REMARK  111  A    between atoms: _250  and  _252
REMARK  112  A    between atoms: _252  and  _253
REMARK  113  A    between atoms: _252  and  _255
REMARK  114  A    between atoms: _255  and  _256
REMARK  115  A    between atoms: _259  and  _261
REMARK  116  A    between atoms: _261  and  _262
REMARK  117  A    between atoms: _264  and  _266
REMARK  118  A    between atoms: _266  and  _267
REMARK  119  A    between atoms: _266  and  _269
REMARK  120  A    between atoms: _269  and  _270
REMARK  121  A    between atoms: _273  and  _275
REMARK  122  A    between atoms: _275  and  _276
REMARK  123  A    between atoms: _275  and  _278
REMARK  124  A    between atoms: _278  and  _279
REMARK  125  A    between atoms: _282  and  _284
REMARK  126  A    between atoms: _284  and  _285
REMARK  127  A    between atoms: _288  and  _290
REMARK  128  A    between atoms: _290  and  _291
REMARK  129  A    between atoms: _290  and  _293
REMARK  130  A    between atoms: _293  and  _294
REMARK  131  A    between atoms: _294  and  _295
REMARK  132  A    between atoms: _295  and  _296
REMARK  133  A    between atoms: _296  and  _297
REMARK  134  A    between atoms: _301  and  _303
REMARK  135  A    between atoms: _303  and  _304
REMARK  136  A    between atoms: _303  and  _306
REMARK  137  A    between atoms: _306  and  _307
REMARK  138  A    between atoms: _310  and  _312
REMARK  139  A    between atoms: _312  and  _313
REMARK  140  A    between atoms: _315  and  _317
REMARK  141  A    between atoms: _317  and  _318
REMARK  142  A    between atoms: _317  and  _320
REMARK  143  A    between atoms: _323  and  _325
REMARK  144  A    between atoms: _325  and  _326
REMARK  145  A    between atoms: _328  and  _330
REMARK  146  A    between atoms: _330  and  _331
REMARK  147  A    between atoms: _330  and  _333
REMARK  148  A    between atoms: _333  and  _334
REMARK  149  A    between atoms: _340  and  _342
REMARK  150  A    between atoms: _342  and  _343
REMARK  151  A    between atoms: _342  and  _345
REMARK  152  A    between atoms: _345  and  _346
REMARK  153  A    between atoms: _351  and  _352
REMARK  154  A    between atoms: _354  and  _356
REMARK  155  A    between atoms: _356  and  _357
REMARK  156  A    between atoms: _356  and  _359
REMARK  157  A    between atoms: _359  and  _360
REMARK  158  A    between atoms: _365  and  _366
REMARK  159  A    between atoms: _368  and  _370
REMARK  160  A    between atoms: _370  and  _371
REMARK  161  A    between atoms: _370  and  _373
REMARK  162  A    between atoms: _376  and  _378
REMARK  163  A    between atoms: _378  and  _379
REMARK  164  A    between atoms: _378  and  _381
REMARK  165  A    between atoms: _381  and  _382
REMARK  166  A    between atoms: _385  and  _387
REMARK  167  A    between atoms: _387  and  _388
REMARK  168  A    between atoms: _387  and  _390
REMARK  169  A    between atoms: _393  and  _395
REMARK  170  A    between atoms: _395  and  _396
REMARK  171  A    between atoms: _395  and  _398
REMARK  172  A    between atoms: _398  and  _399
REMARK  173  A    between atoms: _402  and  _404
REMARK  174  A    between atoms: _404  and  _405
REMARK  175  A    between atoms: _404  and  _407
REMARK  176  A    between atoms: _407  and  _408
REMARK  177  A    between atoms: _411  and  _413
REMARK  178  A    between atoms: _413  and  _414
REMARK  179  A    between atoms: _413  and  _416
REMARK  180  A    between atoms: _416  and  _417
REMARK  181  A    between atoms: _417  and  _418
REMARK  182  A    between atoms: _418  and  _419
REMARK  183  A    between atoms: _419  and  _420
REMARK  184  A    between atoms: _424  and  _426
REMARK  185  A    between atoms: _426  and  _427
REMARK  186  A    between atoms: _426  and  _429
REMARK  187  A    between atoms: _429  and  _430
REMARK  188  A    between atoms: _435  and  _437
REMARK  189  A    between atoms: _437  and  _438
REMARK  190  A    between atoms: _441  and  _443
REMARK  191  A    between atoms: _443  and  _444
REMARK  192  A    between atoms: _443  and  _446
REMARK  193  A    between atoms: _446  and  _447
REMARK  194  A    between atoms: _457  and  _459
REMARK  195  A    between atoms: _459  and  _460
REMARK  196  A    between atoms: _459  and  _462
REMARK  197  A    between atoms: _462  and  _463
REMARK  198  A    between atoms: _463  and  _464
REMARK  199  A    between atoms: _467  and  _469
REMARK  200  A    between atoms: _469  and  _470
REMARK  201  A    between atoms: _469  and  _472
REMARK  202  A    between atoms: _472  and  _473
REMARK  203  A    between atoms: _475  and  _477
REMARK  204  A    between atoms: _477  and  _478
REMARK  205  A    between atoms: _477  and  _480
REMARK  206  A    between atoms: _480  and  _481
REMARK  207  A    between atoms: _487  and  _489
REMARK  208  A    between atoms: _489  and  _490
REMARK  209  A    between atoms: _489  and  _492
REMARK  210  A    between atoms: _492  and  _493
REMARK  211  A    between atoms: _496  and  _498
REMARK  212  A    between atoms: _498  and  _499
REMARK  213  A    between atoms: _498  and  _501
REMARK  214  A    between atoms: _504  and  _506
REMARK  215  A    between atoms: _506  and  _507
REMARK  216  A    between atoms: _509  and  _511
REMARK  217  A    between atoms: _511  and  _512
REMARK  218  A    between atoms: _511  and  _514
REMARK  219  A    between atoms: _514  and  _515
REMARK  220  A    between atoms: _518  and  _520
REMARK  221  A    between atoms: _520  and  _521
REMARK  222  A    between atoms: _520  and  _523
REMARK  223  A    between atoms: _523  and  _524
REMARK  224  A    between atoms: _524  and  _525
REMARK  225  A    between atoms: _525  and  _526
REMARK  226  A    between atoms: _526  and  _527
REMARK  227  A    between atoms: _531  and  _533
REMARK  228  A    between atoms: _533  and  _534
REMARK  229  A    between atoms: _533  and  _536
REMARK  230  A    between atoms: _539  and  _541
REMARK  231  A    between atoms: _541  and  _542
REMARK  232  A    between atoms: _541  and  _544
REMARK  233  A    between atoms: _544  and  _545
REMARK  234  A    between atoms: _550  and  _551
REMARK                            x       y       z     vdW  Elec       q    Type
REMARK                         _______ _______ _______ _____ _____    ______ ____
ROOT
ATOM      1  CA  LYS A   3      -4.596  18.159  25.212  0.00  0.00    +0.149 C 
ENDROOT
BRANCH   1   3
ATOM      2  C   THR A   2      -4.747  15.989  26.342  0.00  0.00    +0.243 C 
ATOM      3  N   LYS A   3      -4.307  17.247  26.306  0.00  0.00    -0.297 N 
ATOM      4  H   LYS A   3      -3.729  17.592  27.099  0.00  0.00    +0.150 HD
ATOM      5  O   THR A   2      -5.584  15.526  25.550  0.00  0.00    -0.273 OA
BRANCH   2   6
ATOM      6  CA  THR A   2      -4.166  15.118  27.446  0.00  0.00    +0.176 C 
BRANCH   6   9
ATOM      7  C   GLY A   1      -5.246  14.102  29.386  0.00  0.00    +0.240 C 
ATOM      8  O   GLY A   1      -4.478  14.633  30.194  0.00  0.00    -0.274 OA
ATOM      9  N   THR A   2      -5.215  14.324  28.076  0.00  0.00    -0.295 N 
ATOM     10  H   THR A   2      -5.964  13.918  27.480  0.00  0.00    +0.150 HD
BRANCH   7  11
ATOM     11  CA  GLY A   1      -6.323  13.150  29.854  0.00  0.00    +0.169 C 
BRANCH  11  12
ATOM     12  N   GLY A   1      -6.617  13.264  31.279  0.00  0.00    -0.236 NA
ATOM     13  H   GLY A   1      -5.842  13.243  31.972  0.00  0.00    +0.142 HD
ENDBRANCH  11  12
ENDBRANCH   7  11
ENDBRANCH   6   9
BRANCH   6  14
ATOM     14  CB  THR A   2      -3.064  14.196  26.877  0.00  0.00    +0.137 C 
ATOM     15  CG2 THR A   2      -1.985  14.986  26.164  0.00  0.00    +0.034 C 
BRANCH  14  16
ATOM     16  OG1 THR A   2      -2.474  13.444  27.948  0.00  0.00    -0.382 OA
ATOM     17  HG1 THR A   2      -2.078  14.067  28.608  0.00  0.00    +0.210 HD
ENDBRANCH  14  16
ENDBRANCH   6  14
ENDBRANCH   2   6
ENDBRANCH   1   3
BRANCH   1  18
ATOM     18  C   LYS A   3      -3.276  18.493  24.565  0.00  0.00    +0.241 C 
ATOM     19  O   LYS A   3      -2.375  19.011  25.238  0.00  0.00    -0.273 OA
ATOM     20  N   VAL A   4      -3.142  18.163  23.284  0.00  0.00    -0.298 N 
ATOM     21  H   VAL A   4      -3.884  17.598  22.824  0.00  0.00    +0.150 HD
BRANCH  20  22
ATOM     22  CA  VAL A   4      -1.977  18.576  22.509  0.00  0.00    +0.137 C 
BRANCH  22  23
ATOM     23  CB  VAL A   4      -1.434  17.437  21.618  0.00  0.00    +0.026 C 
ATOM     24  CG2 VAL A   4      -1.049  16.229  22.474  0.00  0.00    +0.002 C 
ATOM     25  CG1 VAL A   4      -0.249  17.926  20.784  0.00  0.00    +0.002 C 
ENDBRANCH  22  23
BRANCH  22  26
ATOM     26  C   VAL A   4      -2.391  19.762  21.650  0.00  0.00    +0.227 C 
ATOM     27  O   VAL A   4      -3.233  19.625  20.749  0.00  0.00    -0.286 OA
ENDBRANCH  22  26
ENDBRANCH  20  22
ENDBRANCH   1  18
BRANCH   1  28
ATOM     28  CB  LYS A   3      -5.171  19.491  25.711  0.00  0.00    +0.029 C 
BRANCH  28  29
ATOM     29  CG  LYS A   3      -6.532  19.458  26.354  0.00  0.00    +0.000 C 
BRANCH  29  30
ATOM     30  CD  LYS A   3      -6.987  20.904  26.535  0.00  0.00    -0.024 C 
BRANCH  30  31
ATOM     31  CE  LYS A   3      -8.293  21.006  27.292  0.00  0.00    -0.086 C 
BRANCH  31  32
ATOM     32  NZ  LYS A   3      -8.576  22.450  27.538  0.00  0.00    +0.380 N 
ATOM     33  HZ1 LYS A   3      -7.803  22.863  28.099  0.00  0.00    -0.089 HD
ATOM     34  HZ2 LYS A   3      -9.472  22.543  28.058  0.00  0.00    -0.089 HD
ATOM     35  HZ3 LYS A   3      -8.649  22.948  26.628  0.00  0.00    -0.089 HD
ENDBRANCH  31  32
ENDBRANCH  30  31
ENDBRANCH  29  30
ENDBRANCH  28  29
ENDBRANCH   1  28
TORSDOF 16
REMARK  Name = ../refined-set-2016/4cwn/4cwn_pocket.pdb
REMARK  234 active torsions:
REMARK  status: ('A' for Active; 'I' for Inactive)
REMARK    1  A    between atoms: _1  and  _3
REMARK    2  A    between atoms: _3  and  _4
REMARK    3  A    between atoms: _3  and  _6
REMARK    4  A    between atoms: _6  and  _7
REMARK    5  A    between atoms: _13  and  _15
REMARK    6  A    between atoms: _15  and  _16
REMARK    7  A    between atoms: _15  and  _18
REMARK    8  A    between atoms: _18  and  _19
REMARK    9  A    between atoms: _22  and  _24
REMARK   10  A    between atoms: _24  and  _25
REMARK   11  A    between atoms: _24  and  _27
REMARK   12  A    between atoms: _27  and  _28
REMARK   13  A    between atoms: _31  and  _33
REMARK   14  A    between atoms: _33  and  _34
REMARK   15  A    between atoms: _33  and  _36
REMARK   16  A    between atoms: _36  and  _37
REMARK   17  A    between atoms: _37  and  _38
REMARK   18  A    between atoms: _41  and  _43
REMARK   19  A    between atoms: _43  and  _44
REMARK   20  A    between atoms: _43  and  _46
REMARK   21  A    between atoms: _46  and  _47
REMARK   22  A    between atoms: _50  and  _52
REMARK   23  A    between atoms: _52  and  _53
REMARK   24  A    between atoms: _52  and  _55
REMARK   25  A    between atoms: _55  and  _56
REMARK   26  A    between atoms: _59  and  _61
REMARK   27  A    between atoms: _61  and  _62
REMARK   28  A    between atoms: _61  and  _64
REMARK   29  A    between atoms: _64  and  _65
REMARK   30  A    between atoms: _67  and  _69
REMARK   31  A    between atoms: _69  and  _70
REMARK   32  A    between atoms: _69  and  _72
REMARK   33  A    between atoms: _72  and  _73
REMARK   34  A    between atoms: _78  and  _80
REMARK   35  A    between atoms: _80  and  _81
REMARK   36  A    between atoms: _80  and  _83
REMARK   37  A    between atoms: _83  and  _84
REMARK   38  A    between atoms: _86  and  _88
REMARK   39  A    between atoms: _88  and  _89
REMARK   40  A    between atoms: _88  and  _91
REMARK   41  A    between atoms: _91  and  _92
REMARK   42  A    between atoms: _94  and  _96
REMARK   43  A    between atoms: _96  and  _97
REMARK   44  A    between atoms: _96  and  _99
REMARK   45  A    between atoms: _99  and  _100
REMARK   46  A    between atoms: _103  and  _105
REMARK   47  A    between atoms: _105  and  _106
REMARK   48  A    between atoms: _109  and  _111
REMARK   49  A    between atoms: _111  and  _112
REMARK   50  A    between atoms: _111  and  _114
REMARK   51  A    between atoms: _114  and  _115
REMARK   52  A    between atoms: _118  and  _120
REMARK   53  A    between atoms: _120  and  _121
REMARK   54  A    between atoms: _120  and  _123
REMARK   55  A    between atoms: _123  and  _124
REMARK   56  A    between atoms: _124  and  _125
REMARK   57  A    between atoms: _125  and  _126
REMARK   58  A    between atoms: _126  and  _127
REMARK   59  A    between atoms: _131  and  _133
REMARK   60  A    between atoms: _133  and  _134
REMARK   61  A    between atoms: _133  and  _136
REMARK   62  A    between atoms: _136  and  _137
REMARK   63  A    between atoms: _140  and  _142
REMARK   64  A    between atoms: _142  and  _143
REMARK   65  A    between atoms: _142  and  _145
REMARK   66  A    between atoms: _145  and  _146
REMARK   67  A    between atoms: _149  and  _151
REMARK   68  A    between atoms: _151  and  _152
REMARK   69  A    between atoms: _151  and  _154
REMARK   70  A    between atoms: _157  and  _159
REMARK   71  A    between atoms: _159  and  _160
REMARK   72  A    between atoms: _159  and  _162
REMARK   73  A    between atoms: _162  and  _163
REMARK   74  A    between atoms: _166  and  _168
REMARK   75  A    between atoms: _168  and  _169
REMARK   76  A    between atoms: _168  and  _171
REMARK   77  A    between atoms: _171  and  _172
REMARK   78  A    between atoms: _175  and  _177
REMARK   79  A    between atoms: _177  and  _178
REMARK   80  A    between atoms: _180  and  _182
REMARK   81  A    between atoms: _182  and  _183
REMARK   82  A    between atoms: _182  and  _185
REMARK   83  A    between atoms: _185  and  _186
REMARK   84  A    between atoms: _189  and  _191
REMARK   85  A    between atoms: _191  and  _192
REMARK   86  A    between atoms: _194  and  _196
REMARK   87  A    between atoms: _196  and  _197
REMARK   88  A    between atoms: _196  and  _199
REMARK   89  A    between atoms: _199  and  _200
REMARK   90  A    between atoms: _200  and  _201
REMARK   91  A    between atoms: _203  and  _205
REMARK   92  A    between atoms: _205  and  _206
REMARK   93  A    between atoms: _205  and  _208
REMARK   94  A    between atoms: _208  and  _209
REMARK   95  A    between atoms: _212  and  _214
REMARK   96  A    between atoms: _214  and  _215
REMARK   97  A    between atoms: _214  and  _217
REMARK   98  A    between atoms: _217  and  _218
REMARK   99  A    between atoms: _221  and  _223
REMARK  100  A    between atoms: _223  and  _224
REMARK  101  A    between atoms: _223  and  _226
REMARK  102  A    between atoms: _226  and  _227
REMARK  103  A    between atoms: _230  and  _232
REMARK  104  A    between atoms: _232  and  _233
REMARK  105  A    between atoms: _232  and  _235
REMARK  106  A    between atoms: _235  and  _236
REMARK  107  A    between atoms: _239  and  _241
REMARK  108  A    between atoms: _241  and  _242
REMARK  109  A    between atoms: _241  and  _244
REMARK  110  A    between atoms: _244  and  _245
REMARK  111  A    between atoms: _250  and  _252
REMARK  112  A    between atoms: _252  and  _253
REMARK  113  A    between atoms: _252  and  _255
REMARK  114  A    between atoms: _255  and  _256
REMARK  115  A    between atoms: _259  and  _261
REMARK  116  A    between atoms: _261  and  _262
REMARK  117  A    between atoms: _264  and  _266
REMARK  118  A    between atoms: _266  and  _267
REMARK  119  A    between atoms: _266  and  _269
REMARK  120  A    between atoms: _269  and  _270
REMARK  121  A    between atoms: _273  and  _275
REMARK  122  A    between atoms: _275  and  _276
REMARK  123  A    between atoms: _275  and  _278
REMARK  124  A    between atoms: _278  and  _279
REMARK  125  A    between atoms: _282  and  _284
REMARK  126  A    between atoms: _284  and  _285
REMARK  127  A    between atoms: _288  and  _290
REMARK  128  A    between atoms: _290  and  _291
REMARK  129  A    between atoms: _290  and  _293
REMARK  130  A    between atoms: _293  and  _294
REMARK  131  A    between atoms: _294  and  _295
REMARK  132  A    between atoms: _295  and  _296
REMARK  133  A    between atoms: _296  and  _297
REMARK  134  A    between atoms: _301  and  _303
REMARK  135  A    between atoms: _303  and  _304
REMARK  136  A    between atoms: _303  and  _306
REMARK  137  A    between atoms: _306  and  _307
REMARK  138  A    between atoms: _310  and  _312
REMARK  139  A    between atoms: _312  and  _313
REMARK  140  A    between atoms: _315  and  _317
REMARK  141  A    between atoms: _317  and  _318
REMARK  142  A    between atoms: _317  and  _320
REMARK  143  A    between atoms: _323  and  _325
REMARK  144  A    between atoms: _325  and  _326
REMARK  145  A    between atoms: _328  and  _330
REMARK  146  A    between atoms: _330  and  _331
REMARK  147  A    between atoms: _330  and  _333
REMARK  148  A    between atoms: _333  and  _334
REMARK  149  A    between atoms: _340  and  _342
REMARK  150  A    between atoms: _342  and  _343
REMARK  151  A    between atoms: _342  and  _345
REMARK  152  A    between atoms: _345  and  _346
REMARK  153  A    between atoms: _351  and  _352
REMARK  154  A    between atoms: _354  and  _356
REMARK  155  A    between atoms: _356  and  _357
REMARK  156  A    between atoms: _356  and  _359
REMARK  157  A    between atoms: _359  and  _360
REMARK  158  A    between atoms: _365  and  _366
REMARK  159  A    between atoms: _368  and  _370
REMARK  160  A    between atoms: _370  and  _371
REMARK  161  A    between atoms: _370  and  _373
REMARK  162  A    between atoms: _376  and  _378
REMARK  163  A    between atoms: _378  and  _379
REMARK  164  A    between atoms: _378  and  _381
REMARK  165  A    between atoms: _381  and  _382
REMARK  166  A    between atoms: _385  and  _387
REMARK  167  A    between atoms: _387  and  _388
REMARK  168  A    between atoms: _387  and  _390
REMARK  169  A    between atoms: _393  and  _395
REMARK  170  A    between atoms: _395  and  _396
REMARK  171  A    between atoms: _395  and  _398
REMARK  172  A    between atoms: _398  and  _399
REMARK  173  A    between atoms: _402  and  _404
REMARK  174  A    between atoms: _404  and  _405
REMARK  175  A    between atoms: _404  and  _407
REMARK  176  A    between atoms: _407  and  _408
REMARK  177  A    between atoms: _411  and  _413
REMARK  178  A    between atoms: _413  and  _414
REMARK  179  A    between atoms: _413  and  _416
REMARK  180  A    between atoms: _416  and  _417
REMARK  181  A    between atoms: _417  and  _418
REMARK  182  A    between atoms: _418  and  _419
REMARK  183  A    between atoms: _419  and  _420
REMARK  184  A    between atoms: _424  and  _426
REMARK  185  A    between atoms: _426  and  _427
REMARK  186  A    between atoms: _426  and  _429
REMARK  187  A    between atoms: _429  and  _430
REMARK  188  A    between atoms: _435  and  _437
REMARK  189  A    between atoms: _437  and  _438
REMARK  190  A    between atoms: _441  and  _443
REMARK  191  A    between atoms: _443  and  _444
REMARK  192  A    between atoms: _443  and  _446
REMARK  193  A    between atoms: _446  and  _447
REMARK  194  A    between atoms: _457  and  _459
REMARK  195  A    between atoms: _459  and  _460
REMARK  196  A    between atoms: _459  and  _462
REMARK  197  A    between atoms: _462  and  _463
REMARK  198  A    between atoms: _463  and  _464
REMARK  199  A    between atoms: _467  and  _469
REMARK  200  A    between atoms: _469  and  _470
REMARK  201  A    between atoms: _469  and  _472
REMARK  202  A    between atoms: _472  and  _473
REMARK  203  A    between atoms: _475  and  _477
REMARK  204  A    between atoms: _477  and  _478
REMARK  205  A    between atoms: _477  and  _480
REMARK  206  A    between atoms: _480  and  _481
REMARK  207  A    between atoms: _487  and  _489
REMARK  208  A    between atoms: _489  and  _490
REMARK  209  A    between atoms: _489  and  _492
REMARK  210  A    between atoms: _492  and  _493
REMARK  211  A    between atoms: _496  and  _498
REMARK  212  A    between atoms: _498  and  _499
REMARK  213  A    between atoms: _498  and  _501
REMARK  214  A    between atoms: _504  and  _506
REMARK  215  A    between atoms: _506  and  _507
REMARK  216  A    between atoms: _509  and  _511
REMARK  217  A    between atoms: _511  and  _512
REMARK  218  A    between atoms: _511  and  _514
REMARK  219  A    between atoms: _514  and  _515
REMARK  220  A    between atoms: _518  and  _520
REMARK  221  A    between atoms: _520  and  _521
REMARK  222  A    between atoms: _520  and  _523
REMARK  223  A    between atoms: _523  and  _524
REMARK  224  A    between atoms: _524  and  _525
REMARK  225  A    between atoms: _525  and  _526
REMARK  226  A    between atoms: _526  and  _527
REMARK  227  A    between atoms: _531  and  _533
REMARK  228  A    between atoms: _533  and  _534
REMARK  229  A    between atoms: _533  and  _536
REMARK  230  A    between atoms: _539  and  _541
REMARK  231  A    between atoms: _541  and  _542
REMARK  232  A    between atoms: _541  and  _544
REMARK  233  A    between atoms: _544  and  _545
REMARK  234  A    between atoms: _550  and  _551
REMARK                            x       y       z     vdW  Elec       q    Type
REMARK                         _______ _______ _______ _____ _____    ______ ____
ROOT
ATOM      1  CG  TYR A   1       5.648   3.124  30.962  0.00  0.00    -0.020 A 
ATOM      2  CD2 TYR A   1       4.685   2.963  31.961  0.00  0.00    -0.001 A 
ATOM      3  CE2 TYR A   1       4.104   4.060  32.585  0.00  0.00    +0.036 A 
ATOM      4  CZ  TYR A   1       4.485   5.340  32.209  0.00  0.00    +0.134 A 
ATOM      5  CE1 TYR A   1       5.447   5.526  31.221  0.00  0.00    +0.036 A 
ATOM      6  CD1 TYR A   1       6.018   4.424  30.606  0.00  0.00    -0.001 A 
ENDROOT
BRANCH   4   7
ATOM      7  OH  TYR A   1       3.906   6.429  32.834  0.00  0.00    -0.506 OA
ATOM      8  HH  TYR A   1       4.282   7.263  32.456  0.00  0.00    +0.292 HD
ENDBRANCH   4   7
BRANCH   1   9
ATOM      9  CB  TYR A   1       6.280   1.917  30.285  0.00  0.00    +0.051 C 
BRANCH   9  10
ATOM     10  CA  TYR A   1       7.631   1.514  30.883  0.00  0.00    +0.137 C 
BRANCH  10  11
ATOM     11  N   TYR A   1       8.137   0.265  30.295  0.00  0.00    -0.239 NA
ATOM     12  H   TYR A   1       7.538  -0.266  29.631  0.00  0.00    +0.142 HD
ENDBRANCH  10  11
BRANCH  10  13
ATOM     13  C   TYR A   1       7.515   1.411  32.403  0.00  0.00    +0.224 C 
ATOM     14  O   TYR A   1       7.943   2.318  33.120  0.00  0.00    -0.287 OA
ENDBRANCH  10  13
ENDBRANCH   9  10
ENDBRANCH   1   9
TORSDOF 5
REMARK  Name = ../refined-set-2016/4cwn/4cwn_pocket.pdb
REMARK  234 active torsions:
REMARK  status: ('A' for Active; 'I' for Inactive)
REMARK    1  A    between atoms: _1  and  _3
REMARK    2  A    between atoms: _3  and  _4
REMARK    3  A    between atoms: _3  and  _6
REMARK    4  A    between atoms: _6  and  _7
REMARK    5  A    between atoms: _13  and  _15
REMARK    6  A    between atoms: _15  and  _16
REMARK    7  A    between atoms: _15  and  _18
REMARK    8  A    between atoms: _18  and  _19
REMARK    9  A    between atoms: _22  and  _24
REMARK   10  A    between atoms: _24  and  _25
REMARK   11  A    between atoms: _24  and  _27
REMARK   12  A    between atoms: _27  and  _28
REMARK   13  A    between atoms: _31  and  _33
REMARK   14  A    between atoms: _33  and  _34
REMARK   15  A    between atoms: _33  and  _36
REMARK   16  A    between atoms: _36  and  _37
REMARK   17  A    between atoms: _37  and  _38
REMARK   18  A    between atoms: _41  and  _43
REMARK   19  A    between atoms: _43  and  _44
REMARK   20  A    between atoms: _43  and  _46
REMARK   21  A    between atoms: _46  and  _47
REMARK   22  A    between atoms: _50  and  _52
REMARK   23  A    between atoms: _52  and  _53
REMARK   24  A    between atoms: _52  and  _55
REMARK   25  A    between atoms: _55  and  _56
REMARK   26  A    between atoms: _59  and  _61
REMARK   27  A    between atoms: _61  and  _62
REMARK   28  A    between atoms: _61  and  _64
REMARK   29  A    between atoms: _64  and  _65
REMARK   30  A    between atoms: _67  and  _69
REMARK   31  A    between atoms: _69  and  _70
REMARK   32  A    between atoms: _69  and  _72
REMARK   33  A    between atoms: _72  and  _73
REMARK   34  A    between atoms: _78  and  _80
REMARK   35  A    between atoms: _80  and  _81
REMARK   36  A    between atoms: _80  and  _83
REMARK   37  A    between atoms: _83  and  _84
REMARK   38  A    between atoms: _86  and  _88
REMARK   39  A    between atoms: _88  and  _89
REMARK   40  A    between atoms: _88  and  _91
REMARK   41  A    between atoms: _91  and  _92
REMARK   42  A    between atoms: _94  and  _96
REMARK   43  A    between atoms: _96  and  _97
REMARK   44  A    between atoms: _96  and  _99
REMARK   45  A    between atoms: _99  and  _100
REMARK   46  A    between atoms: _103  and  _105
REMARK   47  A    between atoms: _105  and  _106
REMARK   48  A    between atoms: _109  and  _111
REMARK   49  A    between atoms: _111  and  _112
REMARK   50  A    between atoms: _111  and  _114
REMARK   51  A    between atoms: _114  and  _115
REMARK   52  A    between atoms: _118  and  _120
REMARK   53  A    between atoms: _120  and  _121
REMARK   54  A    between atoms: _120  and  _123
REMARK   55  A    between atoms: _123  and  _124
REMARK   56  A    between atoms: _124  and  _125
REMARK   57  A    between atoms: _125  and  _126
REMARK   58  A    between atoms: _126  and  _127
REMARK   59  A    between atoms: _131  and  _133
REMARK   60  A    between atoms: _133  and  _134
REMARK   61  A    between atoms: _133  and  _136
REMARK   62  A    between atoms: _136  and  _137
REMARK   63  A    between atoms: _140  and  _142
REMARK   64  A    between atoms: _142  and  _143
REMARK   65  A    between atoms: _142  and  _145
REMARK   66  A    between atoms: _145  and  _146
REMARK   67  A    between atoms: _149  and  _151
REMARK   68  A    between atoms: _151  and  _152
REMARK   69  A    between atoms: _151  and  _154
REMARK   70  A    between atoms: _157  and  _159
REMARK   71  A    between atoms: _159  and  _160
REMARK   72  A    between atoms: _159  and  _162
REMARK   73  A    between atoms: _162  and  _163
REMARK   74  A    between atoms: _166  and  _168
REMARK   75  A    between atoms: _168  and  _169
REMARK   76  A    between atoms: _168  and  _171
REMARK   77  A    between atoms: _171  and  _172
REMARK   78  A    between atoms: _175  and  _177
REMARK   79  A    between atoms: _177  and  _178
REMARK   80  A    between atoms: _180  and  _182
REMARK   81  A    between atoms: _182  and  _183
REMARK   82  A    between atoms: _182  and  _185
REMARK   83  A    between atoms: _185  and  _186
REMARK   84  A    between atoms: _189  and  _191
REMARK   85  A    between atoms: _191  and  _192
REMARK   86  A    between atoms: _194  and  _196
REMARK   87  A    between atoms: _196  and  _197
REMARK   88  A    between atoms: _196  and  _199
REMARK   89  A    between atoms: _199  and  _200
REMARK   90  A    between atoms: _200  and  _201
REMARK   91  A    between atoms: _203  and  _205
REMARK   92  A    between atoms: _205  and  _206
REMARK   93  A    between atoms: _205  and  _208
REMARK   94  A    between atoms: _208  and  _209
REMARK   95  A    between atoms: _212  and  _214
REMARK   96  A    between atoms: _214  and  _215
REMARK   97  A    between atoms: _214  and  _217
REMARK   98  A    between atoms: _217  and  _218
REMARK   99  A    between atoms: _221  and  _223
REMARK  100  A    between atoms: _223  and  _224
REMARK  101  A    between atoms: _223  and  _226
REMARK  102  A    between atoms: _226  and  _227
REMARK  103  A    between atoms: _230  and  _232
REMARK  104  A    between atoms: _232  and  _233
REMARK  105  A    between atoms: _232  and  _235
REMARK  106  A    between atoms: _235  and  _236
REMARK  107  A    between atoms: _239  and  _241
REMARK  108  A    between atoms: _241  and  _242
REMARK  109  A    between atoms: _241  and  _244
REMARK  110  A    between atoms: _244  and  _245
REMARK  111  A    between atoms: _250  and  _252
REMARK  112  A    between atoms: _252  and  _253
REMARK  113  A    between atoms: _252  and  _255
REMARK  114  A    between atoms: _255  and  _256
REMARK  115  A    between atoms: _259  and  _261
REMARK  116  A    between atoms: _261  and  _262
REMARK  117  A    between atoms: _264  and  _266
REMARK  118  A    between atoms: _266  and  _267
REMARK  119  A    between atoms: _266  and  _269
REMARK  120  A    between atoms: _269  and  _270
REMARK  121  A    between atoms: _273  and  _275
REMARK  122  A    between atoms: _275  and  _276
REMARK  123  A    between atoms: _275  and  _278
REMARK  124  A    between atoms: _278  and  _279
REMARK  125  A    between atoms: _282  and  _284
REMARK  126  A    between atoms: _284  and  _285
REMARK  127  A    between atoms: _288  and  _290
REMARK  128  A    between atoms: _290  and  _291
REMARK  129  A    between atoms: _290  and  _293
REMARK  130  A    between atoms: _293  and  _294
REMARK  131  A    between atoms: _294  and  _295
REMARK  132  A    between atoms: _295  and  _296
REMARK  133  A    between atoms: _296  and  _297
REMARK  134  A    between atoms: _301  and  _303
REMARK  135  A    between atoms: _303  and  _304
REMARK  136  A    between atoms: _303  and  _306
REMARK  137  A    between atoms: _306  and  _307
REMARK  138  A    between atoms: _310  and  _312
REMARK  139  A    between atoms: _312  and  _313
REMARK  140  A    between atoms: _315  and  _317
REMARK  141  A    between atoms: _317  and  _318
REMARK  142  A    between atoms: _317  and  _320
REMARK  143  A    between atoms: _323  and  _325
REMARK  144  A    between atoms: _325  and  _326
REMARK  145  A    between atoms: _328  and  _330
REMARK  146  A    between atoms: _330  and  _331
REMARK  147  A    between atoms: _330  and  _333
REMARK  148  A    between atoms: _333  and  _334
REMARK  149  A    between atoms: _340  and  _342
REMARK  150  A    between atoms: _342  and  _343
REMARK  151  A    between atoms: _342  and  _345
REMARK  152  A    between atoms: _345  and  _346
REMARK  153  A    between atoms: _351  and  _352
REMARK  154  A    between atoms: _354  and  _356
REMARK  155  A    between atoms: _356  and  _357
REMARK  156  A    between atoms: _356  and  _359
REMARK  157  A    between atoms: _359  and  _360
REMARK  158  A    between atoms: _365  and  _366
REMARK  159  A    between atoms: _368  and  _370
REMARK  160  A    between atoms: _370  and  _371
REMARK  161  A    between atoms: _370  and  _373
REMARK  162  A    between atoms: _376  and  _378
REMARK  163  A    between atoms: _378  and  _379
REMARK  164  A    between atoms: _378  and  _381
REMARK  165  A    between atoms: _381  and  _382
REMARK  166  A    between atoms: _385  and  _387
REMARK  167  A    between atoms: _387  and  _388
REMARK  168  A    between atoms: _387  and  _390
REMARK  169  A    between atoms: _393  and  _395
REMARK  170  A    between atoms: _395  and  _396
REMARK  171  A    between atoms: _395  and  _398
REMARK  172  A    between atoms: _398  and  _399
REMARK  173  A    between atoms: _402  and  _404
REMARK  174  A    between atoms: _404  and  _405
REMARK  175  A    between atoms: _404  and  _407
REMARK  176  A    between atoms: _407  and  _408
REMARK  177  A    between atoms: _411  and  _413
REMARK  178  A    between atoms: _413  and  _414
REMARK  179  A    between atoms: _413  and  _416
REMARK  180  A    between atoms: _416  and  _417
REMARK  181  A    between atoms: _417  and  _418
REMARK  182  A    between atoms: _418  and  _419
REMARK  183  A    between atoms: _419  and  _420
REMARK  184  A    between atoms: _424  and  _426
REMARK  185  A    between atoms: _426  and  _427
REMARK  186  A    between atoms: _426  and  _429
REMARK  187  A    between atoms: _429  and  _430
REMARK  188  A    between atoms: _435  and  _437
REMARK  189  A    between atoms: _437  and  _438
REMARK  190  A    between atoms: _441  and  _443
REMARK  191  A    between atoms: _443  and  _444
REMARK  192  A    between atoms: _443  and  _446
REMARK  193  A    between atoms: _446  and  _447
REMARK  194  A    between atoms: _457  and  _459
REMARK  195  A    between atoms: _459  and  _460
REMARK  196  A    between atoms: _459  and  _462
REMARK  197  A    between atoms: _462  and  _463
REMARK  198  A    between atoms: _463  and  _464
REMARK  199  A    between atoms: _467  and  _469
REMARK  200  A    between atoms: _469  and  _470
REMARK  201  A    between atoms: _469  and  _472
REMARK  202  A    between atoms: _472  and  _473
REMARK  203  A    between atoms: _475  and  _477
REMARK  204  A    between atoms: _477  and  _478
REMARK  205  A    between atoms: _477  and  _480
REMARK  206  A    between atoms: _480  and  _481
REMARK  207  A    between atoms: _487  and  _489
REMARK  208  A    between atoms: _489  and  _490
REMARK  209  A    between atoms: _489  and  _492
REMARK  210  A    between atoms: _492  and  _493
REMARK  211  A    between atoms: _496  and  _498
REMARK  212  A    between atoms: _498  and  _499
REMARK  213  A    between atoms: _498  and  _501
REMARK  214  A    between atoms: _504  and  _506
REMARK  215  A    between atoms: _506  and  _507
REMARK  216  A    between atoms: _509  and  _511
REMARK  217  A    between atoms: _511  and  _512
REMARK  218  A    between atoms: _511  and  _514
REMARK  219  A    between atoms: _514  and  _515
REMARK  220  A    between atoms: _518  and  _520
REMARK  221  A    between atoms: _520  and  _521
REMARK  222  A    between atoms: _520  and  _523
REMARK  223  A    between atoms: _523  and  _524
REMARK  224  A    between atoms: _524  and  _525
REMARK  225  A    between atoms: _525  and  _526
REMARK  226  A    between atoms: _526  and  _527
REMARK  227  A    between atoms: _531  and  _533
REMARK  228  A    between atoms: _533  and  _534
REMARK  229  A    between atoms: _533  and  _536
REMARK  230  A    between atoms: _539  and  _541
REMARK  231  A    between atoms: _541  and  _542
REMARK  232  A    between atoms: _541  and  _544
REMARK  233  A    between atoms: _544  and  _545
REMARK  234  A    between atoms: _550  and  _551
REMARK                            x       y       z     vdW  Elec       q    Type
REMARK                         _______ _______ _______ _____ _____    ______ ____
ROOT
ATOM      1  O   HOH     1      14.567  14.289  26.031  0.00  0.00    +0.000 OA
ENDROOT
TORSDOF 0
REMARK  Name = ../refined-set-2016/4cwn/4cwn_pocket.pdb
REMARK  234 active torsions:
REMARK  status: ('A' for Active; 'I' for Inactive)
REMARK    1  A    between atoms: _1  and  _3
REMARK    2  A    between atoms: _3  and  _4
REMARK    3  A    between atoms: _3  and  _6
REMARK    4  A    between atoms: _6  and  _7
REMARK    5  A    between atoms: _13  and  _15
REMARK    6  A    between atoms: _15  and  _16
REMARK    7  A    between atoms: _15  and  _18
REMARK    8  A    between atoms: _18  and  _19
REMARK    9  A    between atoms: _22  and  _24
REMARK   10  A    between atoms: _24  and  _25
REMARK   11  A    between atoms: _24  and  _27
REMARK   12  A    between atoms: _27  and  _28
REMARK   13  A    between atoms: _31  and  _33
REMARK   14  A    between atoms: _33  and  _34
REMARK   15  A    between atoms: _33  and  _36
REMARK   16  A    between atoms: _36  and  _37
REMARK   17  A    between atoms: _37  and  _38
REMARK   18  A    between atoms: _41  and  _43
REMARK   19  A    between atoms: _43  and  _44
REMARK   20  A    between atoms: _43  and  _46
REMARK   21  A    between atoms: _46  and  _47
REMARK   22  A    between atoms: _50  and  _52
REMARK   23  A    between atoms: _52  and  _53
REMARK   24  A    between atoms: _52  and  _55
REMARK   25  A    between atoms: _55  and  _56
REMARK   26  A    between atoms: _59  and  _61
REMARK   27  A    between atoms: _61  and  _62
REMARK   28  A    between atoms: _61  and  _64
REMARK   29  A    between atoms: _64  and  _65
REMARK   30  A    between atoms: _67  and  _69
REMARK   31  A    between atoms: _69  and  _70
REMARK   32  A    between atoms: _69  and  _72
REMARK   33  A    between atoms: _72  and  _73
REMARK   34  A    between atoms: _78  and  _80
REMARK   35  A    between atoms: _80  and  _81
REMARK   36  A    between atoms: _80  and  _83
REMARK   37  A    between atoms: _83  and  _84
REMARK   38  A    between atoms: _86  and  _88
REMARK   39  A    between atoms: _88  and  _89
REMARK   40  A    between atoms: _88  and  _91
REMARK   41  A    between atoms: _91  and  _92
REMARK   42  A    between atoms: _94  and  _96
REMARK   43  A    between atoms: _96  and  _97
REMARK   44  A    between atoms: _96  and  _99
REMARK   45  A    between atoms: _99  and  _100
REMARK   46  A    between atoms: _103  and  _105
REMARK   47  A    between atoms: _105  and  _106
REMARK   48  A    between atoms: _109  and  _111
REMARK   49  A    between atoms: _111  and  _112
REMARK   50  A    between atoms: _111  and  _114
REMARK   51  A    between atoms: _114  and  _115
REMARK   52  A    between atoms: _118  and  _120
REMARK   53  A    between atoms: _120  and  _121
REMARK   54  A    between atoms: _120  and  _123
REMARK   55  A    between atoms: _123  and  _124
REMARK   56  A    between atoms: _124  and  _125
REMARK   57  A    between atoms: _125  and  _126
REMARK   58  A    between atoms: _126  and  _127
REMARK   59  A    between atoms: _131  and  _133
REMARK   60  A    between atoms: _133  and  _134
REMARK   61  A    between atoms: _133  and  _136
REMARK   62  A    between atoms: _136  and  _137
REMARK   63  A    between atoms: _140  and  _142
REMARK   64  A    between atoms: _142  and  _143
REMARK   65  A    between atoms: _142  and  _145
REMARK   66  A    between atoms: _145  and  _146
REMARK   67  A    between atoms: _149  and  _151
REMARK   68  A    between atoms: _151  and  _152
REMARK   69  A    between atoms: _151  and  _154
REMARK   70  A    between atoms: _157  and  _159
REMARK   71  A    between atoms: _159  and  _160
REMARK   72  A    between atoms: _159  and  _162
REMARK   73  A    between atoms: _162  and  _163
REMARK   74  A    between atoms: _166  and  _168
REMARK   75  A    between atoms: _168  and  _169
REMARK   76  A    between atoms: _168  and  _171
REMARK   77  A    between atoms: _171  and  _172
REMARK   78  A    between atoms: _175  and  _177
REMARK   79  A    between atoms: _177  and  _178
REMARK   80  A    between atoms: _180  and  _182
REMARK   81  A    between atoms: _182  and  _183
REMARK   82  A    between atoms: _182  and  _185
REMARK   83  A    between atoms: _185  and  _186
REMARK   84  A    between atoms: _189  and  _191
REMARK   85  A    between atoms: _191  and  _192
REMARK   86  A    between atoms: _194  and  _196
REMARK   87  A    between atoms: _196  and  _197
REMARK   88  A    between atoms: _196  and  _199
REMARK   89  A    between atoms: _199  and  _200
REMARK   90  A    between atoms: _200  and  _201
REMARK   91  A    between atoms: _203  and  _205
REMARK   92  A    between atoms: _205  and  _206
REMARK   93  A    between atoms: _205  and  _208
REMARK   94  A    between atoms: _208  and  _209
REMARK   95  A    between atoms: _212  and  _214
REMARK   96  A    between atoms: _214  and  _215
REMARK   97  A    between atoms: _214  and  _217
REMARK   98  A    between atoms: _217  and  _218
REMARK   99  A    between atoms: _221  and  _223
REMARK  100  A    between atoms: _223  and  _224
REMARK  101  A    between atoms: _223  and  _226
REMARK  102  A    between atoms: _226  and  _227
REMARK  103  A    between atoms: _230  and  _232
REMARK  104  A    between atoms: _232  and  _233
REMARK  105  A    between atoms: _232  and  _235
REMARK  106  A    between atoms: _235  and  _236
REMARK  107  A    between atoms: _239  and  _241
REMARK  108  A    between atoms: _241  and  _242
REMARK  109  A    between atoms: _241  and  _244
REMARK  110  A    between atoms: _244  and  _245
REMARK  111  A    between atoms: _250  and  _252
REMARK  112  A    between atoms: _252  and  _253
REMARK  113  A    between atoms: _252  and  _255
REMARK  114  A    between atoms: _255  and  _256
REMARK  115  A    between atoms: _259  and  _261
REMARK  116  A    between atoms: _261  and  _262
REMARK  117  A    between atoms: _264  and  _266
REMARK  118  A    between atoms: _266  and  _267
REMARK  119  A    between atoms: _266  and  _269
REMARK  120  A    between atoms: _269  and  _270
REMARK  121  A    between atoms: _273  and  _275
REMARK  122  A    between atoms: _275  and  _276
REMARK  123  A    between atoms: _275  and  _278
REMARK  124  A    between atoms: _278  and  _279
REMARK  125  A    between atoms: _282  and  _284
REMARK  126  A    between atoms: _284  and  _285
REMARK  127  A    between atoms: _288  and  _290
REMARK  128  A    between atoms: _290  and  _291
REMARK  129  A    between atoms: _290  and  _293
REMARK  130  A    between atoms: _293  and  _294
REMARK  131  A    between atoms: _294  and  _295
REMARK  132  A    between atoms: _295  and  _296
REMARK  133  A    between atoms: _296  and  _297
REMARK  134  A    between atoms: _301  and  _303
REMARK  135  A    between atoms: _303  and  _304
REMARK  136  A    between atoms: _303  and  _306
REMARK  137  A    between atoms: _306  and  _307
REMARK  138  A    between atoms: _310  and  _312
REMARK  139  A    between atoms: _312  and  _313
REMARK  140  A    between atoms: _315  and  _317
REMARK  141  A    between atoms: _317  and  _318
REMARK  142  A    between atoms: _317  and  _320
REMARK  143  A    between atoms: _323  and  _325
REMARK  144  A    between atoms: _325  and  _326
REMARK  145  A    between atoms: _328  and  _330
REMARK  146  A    between atoms: _330  and  _331
REMARK  147  A    between atoms: _330  and  _333
REMARK  148  A    between atoms: _333  and  _334
REMARK  149  A    between atoms: _340  and  _342
REMARK  150  A    between atoms: _342  and  _343
REMARK  151  A    between atoms: _342  and  _345
REMARK  152  A    between atoms: _345  and  _346
REMARK  153  A    between atoms: _351  and  _352
REMARK  154  A    between atoms: _354  and  _356
REMARK  155  A    between atoms: _356  and  _357
REMARK  156  A    between atoms: _356  and  _359
REMARK  157  A    between atoms: _359  and  _360
REMARK  158  A    between atoms: _365  and  _366
REMARK  159  A    between atoms: _368  and  _370
REMARK  160  A    between atoms: _370  and  _371
REMARK  161  A    between atoms: _370  and  _373
REMARK  162  A    between atoms: _376  and  _378
REMARK  163  A    between atoms: _378  and  _379
REMARK  164  A    between atoms: _378  and  _381
REMARK  165  A    between atoms: _381  and  _382
REMARK  166  A    between atoms: _385  and  _387
REMARK  167  A    between atoms: _387  and  _388
REMARK  168  A    between atoms: _387  and  _390
REMARK  169  A    between atoms: _393  and  _395
REMARK  170  A    between atoms: _395  and  _396
REMARK  171  A    between atoms: _395  and  _398
REMARK  172  A    between atoms: _398  and  _399
REMARK  173  A    between atoms: _402  and  _404
REMARK  174  A    between atoms: _404  and  _405
REMARK  175  A    between atoms: _404  and  _407
REMARK  176  A    between atoms: _407  and  _408
REMARK  177  A    between atoms: _411  and  _413
REMARK  178  A    between atoms: _413  and  _414
REMARK  179  A    between atoms: _413  and  _416
REMARK  180  A    between atoms: _416  and  _417
REMARK  181  A    between atoms: _417  and  _418
REMARK  182  A    between atoms: _418  and  _419
REMARK  183  A    between atoms: _419  and  _420
REMARK  184  A    between atoms: _424  and  _426
REMARK  185  A    between atoms: _426  and  _427
REMARK  186  A    between atoms: _426  and  _429
REMARK  187  A    between atoms: _429  and  _430
REMARK  188  A    between atoms: _435  and  _437
REMARK  189  A    between atoms: _437  and  _438
REMARK  190  A    between atoms: _441  and  _443
REMARK  191  A    between atoms: _443  and  _444
REMARK  192  A    between atoms: _443  and  _446
REMARK  193  A    between atoms: _446  and  _447
REMARK  194  A    between atoms: _457  and  _459
REMARK  195  A    between atoms: _459  and  _460
REMARK  196  A    between atoms: _459  and  _462
REMARK  197  A    between atoms: _462  and  _463
REMARK  198  A    between atoms: _463  and  _464
REMARK  199  A    between atoms: _467  and  _469
REMARK  200  A    between atoms: _469  and  _470
REMARK  201  A    between atoms: _469  and  _472
REMARK  202  A    between atoms: _472  and  _473
REMARK  203  A    between atoms: _475  and  _477
REMARK  204  A    between atoms: _477  and  _478
REMARK  205  A    between atoms: _477  and  _480
REMARK  206  A    between atoms: _480  and  _481
REMARK  207  A    between atoms: _487  and  _489
REMARK  208  A    between atoms: _489  and  _490
REMARK  209  A    between atoms: _489  and  _492
REMARK  210  A    between atoms: _492  and  _493
REMARK  211  A    between atoms: _496  and  _498
REMARK  212  A    between atoms: _498  and  _499
REMARK  213  A    between atoms: _498  and  _501
REMARK  214  A    between atoms: _504  and  _506
REMARK  215  A    between atoms: _506  and  _507
REMARK  216  A    between atoms: _509  and  _511
REMARK  217  A    between atoms: _511  and  _512
REMARK  218  A    between atoms: _511  and  _514
REMARK  219  A    between atoms: _514  and  _515
REMARK  220  A    between atoms: _518  and  _520
REMARK  221  A    between atoms: _520  and  _521
REMARK  222  A    between atoms: _520  and  _523
REMARK  223  A    between atoms: _523  and  _524
REMARK  224  A    between atoms: _524  and  _525
REMARK  225  A    between atoms: _525  and  _526
REMARK  226  A    between atoms: _526  and  _527
REMARK  227  A    between atoms: _531  and  _533
REMARK  228  A    between atoms: _533  and  _534
REMARK  229  A    between atoms: _533  and  _536
REMARK  230  A    between atoms: _539  and  _541
REMARK  231  A    between atoms: _541  and  _542
REMARK  232  A    between atoms: _541  and  _544
REMARK  233  A    between atoms: _544  and  _545
REMARK  234  A    between atoms: _550  and  _551
REMARK                            x       y       z     vdW  Elec       q    Type
REMARK                         _______ _______ _______ _____ _____    ______ ____
ROOT
ATOM      1  O   HOH     1       2.359   1.264  29.475  0.00  0.00    +0.000 OA
ENDROOT
TORSDOF 0
REMARK  Name = ../refined-set-2016/4cwn/4cwn_pocket.pdb
REMARK  234 active torsions:
REMARK  status: ('A' for Active; 'I' for Inactive)
REMARK    1  A    between atoms: _1  and  _3
REMARK    2  A    between atoms: _3  and  _4
REMARK    3  A    between atoms: _3  and  _6
REMARK    4  A    between atoms: _6  and  _7
REMARK    5  A    between atoms: _13  and  _15
REMARK    6  A    between atoms: _15  and  _16
REMARK    7  A    between atoms: _15  and  _18
REMARK    8  A    between atoms: _18  and  _19
REMARK    9  A    between atoms: _22  and  _24
REMARK   10  A    between atoms: _24  and  _25
REMARK   11  A    between atoms: _24  and  _27
REMARK   12  A    between atoms: _27  and  _28
REMARK   13  A    between atoms: _31  and  _33
REMARK   14  A    between atoms: _33  and  _34
REMARK   15  A    between atoms: _33  and  _36
REMARK   16  A    between atoms: _36  and  _37
REMARK   17  A    between atoms: _37  and  _38
REMARK   18  A    between atoms: _41  and  _43
REMARK   19  A    between atoms: _43  and  _44
REMARK   20  A    between atoms: _43  and  _46
REMARK   21  A    between atoms: _46  and  _47
REMARK   22  A    between atoms: _50  and  _52
REMARK   23  A    between atoms: _52  and  _53
REMARK   24  A    between atoms: _52  and  _55
REMARK   25  A    between atoms: _55  and  _56
REMARK   26  A    between atoms: _59  and  _61
REMARK   27  A    between atoms: _61  and  _62
REMARK   28  A    between atoms: _61  and  _64
REMARK   29  A    between atoms: _64  and  _65
REMARK   30  A    between atoms: _67  and  _69
REMARK   31  A    between atoms: _69  and  _70
REMARK   32  A    between atoms: _69  and  _72
REMARK   33  A    between atoms: _72  and  _73
REMARK   34  A    between atoms: _78  and  _80
REMARK   35  A    between atoms: _80  and  _81
REMARK   36  A    between atoms: _80  and  _83
REMARK   37  A    between atoms: _83  and  _84
REMARK   38  A    between atoms: _86  and  _88
REMARK   39  A    between atoms: _88  and  _89
REMARK   40  A    between atoms: _88  and  _91
REMARK   41  A    between atoms: _91  and  _92
REMARK   42  A    between atoms: _94  and  _96
REMARK   43  A    between atoms: _96  and  _97
REMARK   44  A    between atoms: _96  and  _99
REMARK   45  A    between atoms: _99  and  _100
REMARK   46  A    between atoms: _103  and  _105
REMARK   47  A    between atoms: _105  and  _106
REMARK   48  A    between atoms: _109  and  _111
REMARK   49  A    between atoms: _111  and  _112
REMARK   50  A    between atoms: _111  and  _114
REMARK   51  A    between atoms: _114  and  _115
REMARK   52  A    between atoms: _118  and  _120
REMARK   53  A    between atoms: _120  and  _121
REMARK   54  A    between atoms: _120  and  _123
REMARK   55  A    between atoms: _123  and  _124
REMARK   56  A    between atoms: _124  and  _125
REMARK   57  A    between atoms: _125  and  _126
REMARK   58  A    between atoms: _126  and  _127
REMARK   59  A    between atoms: _131  and  _133
REMARK   60  A    between atoms: _133  and  _134
REMARK   61  A    between atoms: _133  and  _136
REMARK   62  A    between atoms: _136  and  _137
REMARK   63  A    between atoms: _140  and  _142
REMARK   64  A    between atoms: _142  and  _143
REMARK   65  A    between atoms: _142  and  _145
REMARK   66  A    between atoms: _145  and  _146
REMARK   67  A    between atoms: _149  and  _151
REMARK   68  A    between atoms: _151  and  _152
REMARK   69  A    between atoms: _151  and  _154
REMARK   70  A    between atoms: _157  and  _159
REMARK   71  A    between atoms: _159  and  _160
REMARK   72  A    between atoms: _159  and  _162
REMARK   73  A    between atoms: _162  and  _163
REMARK   74  A    between atoms: _166  and  _168
REMARK   75  A    between atoms: _168  and  _169
REMARK   76  A    between atoms: _168  and  _171
REMARK   77  A    between atoms: _171  and  _172
REMARK   78  A    between atoms: _175  and  _177
REMARK   79  A    between atoms: _177  and  _178
REMARK   80  A    between atoms: _180  and  _182
REMARK   81  A    between atoms: _182  and  _183
REMARK   82  A    between atoms: _182  and  _185
REMARK   83  A    between atoms: _185  and  _186
REMARK   84  A    between atoms: _189  and  _191
REMARK   85  A    between atoms: _191  and  _192
REMARK   86  A    between atoms: _194  and  _196
REMARK   87  A    between atoms: _196  and  _197
REMARK   88  A    between atoms: _196  and  _199
REMARK   89  A    between atoms: _199  and  _200
REMARK   90  A    between atoms: _200  and  _201
REMARK   91  A    between atoms: _203  and  _205
REMARK   92  A    between atoms: _205  and  _206
REMARK   93  A    between atoms: _205  and  _208
REMARK   94  A    between atoms: _208  and  _209
REMARK   95  A    between atoms: _212  and  _214
REMARK   96  A    between atoms: _214  and  _215
REMARK   97  A    between atoms: _214  and  _217
REMARK   98  A    between atoms: _217  and  _218
REMARK   99  A    between atoms: _221  and  _223
REMARK  100  A    between atoms: _223  and  _224
REMARK  101  A    between atoms: _223  and  _226
REMARK  102  A    between atoms: _226  and  _227
REMARK  103  A    between atoms: _230  and  _232
REMARK  104  A    between atoms: _232  and  _233
REMARK  105  A    between atoms: _232  and  _235
REMARK  106  A    between atoms: _235  and  _236
REMARK  107  A    between atoms: _239  and  _241
REMARK  108  A    between atoms: _241  and  _242
REMARK  109  A    between atoms: _241  and  _244
REMARK  110  A    between atoms: _244  and  _245
REMARK  111  A    between atoms: _250  and  _252
REMARK  112  A    between atoms: _252  and  _253
REMARK  113  A    between atoms: _252  and  _255
REMARK  114  A    between atoms: _255  and  _256
REMARK  115  A    between atoms: _259  and  _261
REMARK  116  A    between atoms: _261  and  _262
REMARK  117  A    between atoms: _264  and  _266
REMARK  118  A    between atoms: _266  and  _267
REMARK  119  A    between atoms: _266  and  _269
REMARK  120  A    between atoms: _269  and  _270
REMARK  121  A    between atoms: _273  and  _275
REMARK  122  A    between atoms: _275  and  _276
REMARK  123  A    between atoms: _275  and  _278
REMARK  124  A    between atoms: _278  and  _279
REMARK  125  A    between atoms: _282  and  _284
REMARK  126  A    between atoms: _284  and  _285
REMARK  127  A    between atoms: _288  and  _290
REMARK  128  A    between atoms: _290  and  _291
REMARK  129  A    between atoms: _290  and  _293
REMARK  130  A    between atoms: _293  and  _294
REMARK  131  A    between atoms: _294  and  _295
REMARK  132  A    between atoms: _295  and  _296
REMARK  133  A    between atoms: _296  and  _297
REMARK  134  A    between atoms: _301  and  _303
REMARK  135  A    between atoms: _303  and  _304
REMARK  136  A    between atoms: _303  and  _306
REMARK  137  A    between atoms: _306  and  _307
REMARK  138  A    between atoms: _310  and  _312
REMARK  139  A    between atoms: _312  and  _313
REMARK  140  A    between atoms: _315  and  _317
REMARK  141  A    between atoms: _317  and  _318
REMARK  142  A    between atoms: _317  and  _320
REMARK  143  A    between atoms: _323  and  _325
REMARK  144  A    between atoms: _325  and  _326
REMARK  145  A    between atoms: _328  and  _330
REMARK  146  A    between atoms: _330  and  _331
REMARK  147  A    between atoms: _330  and  _333
REMARK  148  A    between atoms: _333  and  _334
REMARK  149  A    between atoms: _340  and  _342
REMARK  150  A    between atoms: _342  and  _343
REMARK  151  A    between atoms: _342  and  _345
REMARK  152  A    between atoms: _345  and  _346
REMARK  153  A    between atoms: _351  and  _352
REMARK  154  A    between atoms: _354  and  _356
REMARK  155  A    between atoms: _356  and  _357
REMARK  156  A    between atoms: _356  and  _359
REMARK  157  A    between atoms: _359  and  _360
REMARK  158  A    between atoms: _365  and  _366
REMARK  159  A    between atoms: _368  and  _370
REMARK  160  A    between atoms: _370  and  _371
REMARK  161  A    between atoms: _370  and  _373
REMARK  162  A    between atoms: _376  and  _378
REMARK  163  A    between atoms: _378  and  _379
REMARK  164  A    between atoms: _378  and  _381
REMARK  165  A    between atoms: _381  and  _382
REMARK  166  A    between atoms: _385  and  _387
REMARK  167  A    between atoms: _387  and  _388
REMARK  168  A    between atoms: _387  and  _390
REMARK  169  A    between atoms: _393  and  _395
REMARK  170  A    between atoms: _395  and  _396
REMARK  171  A    between atoms: _395  and  _398
REMARK  172  A    between atoms: _398  and  _399
REMARK  173  A    between atoms: _402  and  _404
REMARK  174  A    between atoms: _404  and  _405
REMARK  175  A    between atoms: _404  and  _407
REMARK  176  A    between atoms: _407  and  _408
REMARK  177  A    between atoms: _411  and  _413
REMARK  178  A    between atoms: _413  and  _414
REMARK  179  A    between atoms: _413  and  _416
REMARK  180  A    between atoms: _416  and  _417
REMARK  181  A    between atoms: _417  and  _418
REMARK  182  A    between atoms: _418  and  _419
REMARK  183  A    between atoms: _419  and  _420
REMARK  184  A    between atoms: _424  and  _426
REMARK  185  A    between atoms: _426  and  _427
REMARK  186  A    between atoms: _426  and  _429
REMARK  187  A    between atoms: _429  and  _430
REMARK  188  A    between atoms: _435  and  _437
REMARK  189  A    between atoms: _437  and  _438
REMARK  190  A    between atoms: _441  and  _443
REMARK  191  A    between atoms: _443  and  _444
REMARK  192  A    between atoms: _443  and  _446
REMARK  193  A    between atoms: _446  and  _447
REMARK  194  A    between atoms: _457  and  _459
REMARK  195  A    between atoms: _459  and  _460
REMARK  196  A    between atoms: _459  and  _462
REMARK  197  A    between atoms: _462  and  _463
REMARK  198  A    between atoms: _463  and  _464
REMARK  199  A    between atoms: _467  and  _469
REMARK  200  A    between atoms: _469  and  _470
REMARK  201  A    between atoms: _469  and  _472
REMARK  202  A    between atoms: _472  and  _473
REMARK  203  A    between atoms: _475  and  _477
REMARK  204  A    between atoms: _477  and  _478
REMARK  205  A    between atoms: _477  and  _480
REMARK  206  A    between atoms: _480  and  _481
REMARK  207  A    between atoms: _487  and  _489
REMARK  208  A    between atoms: _489  and  _490
REMARK  209  A    between atoms: _489  and  _492
REMARK  210  A    between atoms: _492  and  _493
REMARK  211  A    between atoms: _496  and  _498
REMARK  212  A    between atoms: _498  and  _499
REMARK  213  A    between atoms: _498  and  _501
REMARK  214  A    between atoms: _504  and  _506
REMARK  215  A    between atoms: _506  and  _507
REMARK  216  A    between atoms: _509  and  _511
REMARK  217  A    between atoms: _511  and  _512
REMARK  218  A    between atoms: _511  and  _514
REMARK  219  A    between atoms: _514  and  _515
REMARK  220  A    between atoms: _518  and  _520
REMARK  221  A    between atoms: _520  and  _521
REMARK  222  A    between atoms: _520  and  _523
REMARK  223  A    between atoms: _523  and  _524
REMARK  224  A    between atoms: _524  and  _525
REMARK  225  A    between atoms: _525  and  _526
REMARK  226  A    between atoms: _526  and  _527
REMARK  227  A    between atoms: _531  and  _533
REMARK  228  A    between atoms: _533  and  _534
REMARK  229  A    between atoms: _533  and  _536
REMARK  230  A    between atoms: _539  and  _541
REMARK  231  A    between atoms: _541  and  _542
REMARK  232  A    between atoms: _541  and  _544
REMARK  233  A    between atoms: _544  and  _545
REMARK  234  A    between atoms: _550  and  _551
REMARK                            x       y       z     vdW  Elec       q    Type
REMARK                         _______ _______ _______ _____ _____    ______ ____
ROOT
ATOM      1  O   HOH     1       2.186   7.810  16.974  0.00  0.00    +0.000 OA
ENDROOT
TORSDOF 0
REMARK  Name = ../refined-set-2016/4cwn/4cwn_pocket.pdb
REMARK  234 active torsions:
REMARK  status: ('A' for Active; 'I' for Inactive)
REMARK    1  A    between atoms: _1  and  _3
REMARK    2  A    between atoms: _3  and  _4
REMARK    3  A    between atoms: _3  and  _6
REMARK    4  A    between atoms: _6  and  _7
REMARK    5  A    between atoms: _13  and  _15
REMARK    6  A    between atoms: _15  and  _16
REMARK    7  A    between atoms: _15  and  _18
REMARK    8  A    between atoms: _18  and  _19
REMARK    9  A    between atoms: _22  and  _24
REMARK   10  A    between atoms: _24  and  _25
REMARK   11  A    between atoms: _24  and  _27
REMARK   12  A    between atoms: _27  and  _28
REMARK   13  A    between atoms: _31  and  _33
REMARK   14  A    between atoms: _33  and  _34
REMARK   15  A    between atoms: _33  and  _36
REMARK   16  A    between atoms: _36  and  _37
REMARK   17  A    between atoms: _37  and  _38
REMARK   18  A    between atoms: _41  and  _43
REMARK   19  A    between atoms: _43  and  _44
REMARK   20  A    between atoms: _43  and  _46
REMARK   21  A    between atoms: _46  and  _47
REMARK   22  A    between atoms: _50  and  _52
REMARK   23  A    between atoms: _52  and  _53
REMARK   24  A    between atoms: _52  and  _55
REMARK   25  A    between atoms: _55  and  _56
REMARK   26  A    between atoms: _59  and  _61
REMARK   27  A    between atoms: _61  and  _62
REMARK   28  A    between atoms: _61  and  _64
REMARK   29  A    between atoms: _64  and  _65
REMARK   30  A    between atoms: _67  and  _69
REMARK   31  A    between atoms: _69  and  _70
REMARK   32  A    between atoms: _69  and  _72
REMARK   33  A    between atoms: _72  and  _73
REMARK   34  A    between atoms: _78  and  _80
REMARK   35  A    between atoms: _80  and  _81
REMARK   36  A    between atoms: _80  and  _83
REMARK   37  A    between atoms: _83  and  _84
REMARK   38  A    between atoms: _86  and  _88
REMARK   39  A    between atoms: _88  and  _89
REMARK   40  A    between atoms: _88  and  _91
REMARK   41  A    between atoms: _91  and  _92
REMARK   42  A    between atoms: _94  and  _96
REMARK   43  A    between atoms: _96  and  _97
REMARK   44  A    between atoms: _96  and  _99
REMARK   45  A    between atoms: _99  and  _100
REMARK   46  A    between atoms: _103  and  _105
REMARK   47  A    between atoms: _105  and  _106
REMARK   48  A    between atoms: _109  and  _111
REMARK   49  A    between atoms: _111  and  _112
REMARK   50  A    between atoms: _111  and  _114
REMARK   51  A    between atoms: _114  and  _115
REMARK   52  A    between atoms: _118  and  _120
REMARK   53  A    between atoms: _120  and  _121
REMARK   54  A    between atoms: _120  and  _123
REMARK   55  A    between atoms: _123  and  _124
REMARK   56  A    between atoms: _124  and  _125
REMARK   57  A    between atoms: _125  and  _126
REMARK   58  A    between atoms: _126  and  _127
REMARK   59  A    between atoms: _131  and  _133
REMARK   60  A    between atoms: _133  and  _134
REMARK   61  A    between atoms: _133  and  _136
REMARK   62  A    between atoms: _136  and  _137
REMARK   63  A    between atoms: _140  and  _142
REMARK   64  A    between atoms: _142  and  _143
REMARK   65  A    between atoms: _142  and  _145
REMARK   66  A    between atoms: _145  and  _146
REMARK   67  A    between atoms: _149  and  _151
REMARK   68  A    between atoms: _151  and  _152
REMARK   69  A    between atoms: _151  and  _154
REMARK   70  A    between atoms: _157  and  _159
REMARK   71  A    between atoms: _159  and  _160
REMARK   72  A    between atoms: _159  and  _162
REMARK   73  A    between atoms: _162  and  _163
REMARK   74  A    between atoms: _166  and  _168
REMARK   75  A    between atoms: _168  and  _169
REMARK   76  A    between atoms: _168  and  _171
REMARK   77  A    between atoms: _171  and  _172
REMARK   78  A    between atoms: _175  and  _177
REMARK   79  A    between atoms: _177  and  _178
REMARK   80  A    between atoms: _180  and  _182
REMARK   81  A    between atoms: _182  and  _183
REMARK   82  A    between atoms: _182  and  _185
REMARK   83  A    between atoms: _185  and  _186
REMARK   84  A    between atoms: _189  and  _191
REMARK   85  A    between atoms: _191  and  _192
REMARK   86  A    between atoms: _194  and  _196
REMARK   87  A    between atoms: _196  and  _197
REMARK   88  A    between atoms: _196  and  _199
REMARK   89  A    between atoms: _199  and  _200
REMARK   90  A    between atoms: _200  and  _201
REMARK   91  A    between atoms: _203  and  _205
REMARK   92  A    between atoms: _205  and  _206
REMARK   93  A    between atoms: _205  and  _208
REMARK   94  A    between atoms: _208  and  _209
REMARK   95  A    between atoms: _212  and  _214
REMARK   96  A    between atoms: _214  and  _215
REMARK   97  A    between atoms: _214  and  _217
REMARK   98  A    between atoms: _217  and  _218
REMARK   99  A    between atoms: _221  and  _223
REMARK  100  A    between atoms: _223  and  _224
REMARK  101  A    between atoms: _223  and  _226
REMARK  102  A    between atoms: _226  and  _227
REMARK  103  A    between atoms: _230  and  _232
REMARK  104  A    between atoms: _232  and  _233
REMARK  105  A    between atoms: _232  and  _235
REMARK  106  A    between atoms: _235  and  _236
REMARK  107  A    between atoms: _239  and  _241
REMARK  108  A    between atoms: _241  and  _242
REMARK  109  A    between atoms: _241  and  _244
REMARK  110  A    between atoms: _244  and  _245
REMARK  111  A    between atoms: _250  and  _252
REMARK  112  A    between atoms: _252  and  _253
REMARK  113  A    between atoms: _252  and  _255
REMARK  114  A    between atoms: _255  and  _256
REMARK  115  A    between atoms: _259  and  _261
REMARK  116  A    between atoms: _261  and  _262
REMARK  117  A    between atoms: _264  and  _266
REMARK  118  A    between atoms: _266  and  _267
REMARK  119  A    between atoms: _266  and  _269
REMARK  120  A    between atoms: _269  and  _270
REMARK  121  A    between atoms: _273  and  _275
REMARK  122  A    between atoms: _275  and  _276
REMARK  123  A    between atoms: _275  and  _278
REMARK  124  A    between atoms: _278  and  _279
REMARK  125  A    between atoms: _282  and  _284
REMARK  126  A    between atoms: _284  and  _285
REMARK  127  A    between atoms: _288  and  _290
REMARK  128  A    between atoms: _290  and  _291
REMARK  129  A    between atoms: _290  and  _293
REMARK  130  A    between atoms: _293  and  _294
REMARK  131  A    between atoms: _294  and  _295
REMARK  132  A    between atoms: _295  and  _296
REMARK  133  A    between atoms: _296  and  _297
REMARK  134  A    between atoms: _301  and  _303
REMARK  135  A    between atoms: _303  and  _304
REMARK  136  A    between atoms: _303  and  _306
REMARK  137  A    between atoms: _306  and  _307
REMARK  138  A    between atoms: _310  and  _312
REMARK  139  A    between atoms: _312  and  _313
REMARK  140  A    between atoms: _315  and  _317
REMARK  141  A    between atoms: _317  and  _318
REMARK  142  A    between atoms: _317  and  _320
REMARK  143  A    between atoms: _323  and  _325
REMARK  144  A    between atoms: _325  and  _326
REMARK  145  A    between atoms: _328  and  _330
REMARK  146  A    between atoms: _330  and  _331
REMARK  147  A    between atoms: _330  and  _333
REMARK  148  A    between atoms: _333  and  _334
REMARK  149  A    between atoms: _340  and  _342
REMARK  150  A    between atoms: _342  and  _343
REMARK  151  A    between atoms: _342  and  _345
REMARK  152  A    between atoms: _345  and  _346
REMARK  153  A    between atoms: _351  and  _352
REMARK  154  A    between atoms: _354  and  _356
REMARK  155  A    between atoms: _356  and  _357
REMARK  156  A    between atoms: _356  and  _359
REMARK  157  A    between atoms: _359  and  _360
REMARK  158  A    between atoms: _365  and  _366
REMARK  159  A    between atoms: _368  and  _370
REMARK  160  A    between atoms: _370  and  _371
REMARK  161  A    between atoms: _370  and  _373
REMARK  162  A    between atoms: _376  and  _378
REMARK  163  A    between atoms: _378  and  _379
REMARK  164  A    between atoms: _378  and  _381
REMARK  165  A    between atoms: _381  and  _382
REMARK  166  A    between atoms: _385  and  _387
REMARK  167  A    between atoms: _387  and  _388
REMARK  168  A    between atoms: _387  and  _390
REMARK  169  A    between atoms: _393  and  _395
REMARK  170  A    between atoms: _395  and  _396
REMARK  171  A    between atoms: _395  and  _398
REMARK  172  A    between atoms: _398  and  _399
REMARK  173  A    between atoms: _402  and  _404
REMARK  174  A    between atoms: _404  and  _405
REMARK  175  A    between atoms: _404  and  _407
REMARK  176  A    between atoms: _407  and  _408
REMARK  177  A    between atoms: _411  and  _413
REMARK  178  A    between atoms: _413  and  _414
REMARK  179  A    between atoms: _413  and  _416
REMARK  180  A    between atoms: _416  and  _417
REMARK  181  A    between atoms: _417  and  _418
REMARK  182  A    between atoms: _418  and  _419
REMARK  183  A    between atoms: _419  and  _420
REMARK  184  A    between atoms: _424  and  _426
REMARK  185  A    between atoms: _426  and  _427
REMARK  186  A    between atoms: _426  and  _429
REMARK  187  A    between atoms: _429  and  _430
REMARK  188  A    between atoms: _435  and  _437
REMARK  189  A    between atoms: _437  and  _438
REMARK  190  A    between atoms: _441  and  _443
REMARK  191  A    between atoms: _443  and  _444
REMARK  192  A    between atoms: _443  and  _446
REMARK  193  A    between atoms: _446  and  _447
REMARK  194  A    between atoms: _457  and  _459
REMARK  195  A    between atoms: _459  and  _460
REMARK  196  A    between atoms: _459  and  _462
REMARK  197  A    between atoms: _462  and  _463
REMARK  198  A    between atoms: _463  and  _464
REMARK  199  A    between atoms: _467  and  _469
REMARK  200  A    between atoms: _469  and  _470
REMARK  201  A    between atoms: _469  and  _472
REMARK  202  A    between atoms: _472  and  _473
REMARK  203  A    between atoms: _475  and  _477
REMARK  204  A    between atoms: _477  and  _478
REMARK  205  A    between atoms: _477  and  _480
REMARK  206  A    between atoms: _480  and  _481
REMARK  207  A    between atoms: _487  and  _489
REMARK  208  A    between atoms: _489  and  _490
REMARK  209  A    between atoms: _489  and  _492
REMARK  210  A    between atoms: _492  and  _493
REMARK  211  A    between atoms: _496  and  _498
REMARK  212  A    between atoms: _498  and  _499
REMARK  213  A    between atoms: _498  and  _501
REMARK  214  A    between atoms: _504  and  _506
REMARK  215  A    between atoms: _506  and  _507
REMARK  216  A    between atoms: _509  and  _511
REMARK  217  A    between atoms: _511  and  _512
REMARK  218  A    between atoms: _511  and  _514
REMARK  219  A    between atoms: _514  and  _515
REMARK  220  A    between atoms: _518  and  _520
REMARK  221  A    between atoms: _520  and  _521
REMARK  222  A    between atoms: _520  and  _523
REMARK  223  A    between atoms: _523  and  _524
REMARK  224  A    between atoms: _524  and  _525
REMARK  225  A    between atoms: _525  and  _526
REMARK  226  A    between atoms: _526  and  _527
REMARK  227  A    between atoms: _531  and  _533
REMARK  228  A    between atoms: _533  and  _534
REMARK  229  A    between atoms: _533  and  _536
REMARK  230  A    between atoms: _539  and  _541
REMARK  231  A    between atoms: _541  and  _542
REMARK  232  A    between atoms: _541  and  _544
REMARK  233  A    between atoms: _544  and  _545
REMARK  234  A    between atoms: _550  and  _551
REMARK                            x       y       z     vdW  Elec       q    Type
REMARK                         _______ _______ _______ _____ _____    ______ ____
ROOT
ATOM      1  O   HOH     1      -2.331  13.164  21.107  0.00  0.00    +0.000 OA
ENDROOT
TORSDOF 0
REMARK  Name = ../refined-set-2016/4cwn/4cwn_pocket.pdb
REMARK  234 active torsions:
REMARK  status: ('A' for Active; 'I' for Inactive)
REMARK    1  A    between atoms: _1  and  _3
REMARK    2  A    between atoms: _3  and  _4
REMARK    3  A    between atoms: _3  and  _6
REMARK    4  A    between atoms: _6  and  _7
REMARK    5  A    between atoms: _13  and  _15
REMARK    6  A    between atoms: _15  and  _16
REMARK    7  A    between atoms: _15  and  _18
REMARK    8  A    between atoms: _18  and  _19
REMARK    9  A    between atoms: _22  and  _24
REMARK   10  A    between atoms: _24  and  _25
REMARK   11  A    between atoms: _24  and  _27
REMARK   12  A    between atoms: _27  and  _28
REMARK   13  A    between atoms: _31  and  _33
REMARK   14  A    between atoms: _33  and  _34
REMARK   15  A    between atoms: _33  and  _36
REMARK   16  A    between atoms: _36  and  _37
REMARK   17  A    between atoms: _37  and  _38
REMARK   18  A    between atoms: _41  and  _43
REMARK   19  A    between atoms: _43  and  _44
REMARK   20  A    between atoms: _43  and  _46
REMARK   21  A    between atoms: _46  and  _47
REMARK   22  A    between atoms: _50  and  _52
REMARK   23  A    between atoms: _52  and  _53
REMARK   24  A    between atoms: _52  and  _55
REMARK   25  A    between atoms: _55  and  _56
REMARK   26  A    between atoms: _59  and  _61
REMARK   27  A    between atoms: _61  and  _62
REMARK   28  A    between atoms: _61  and  _64
REMARK   29  A    between atoms: _64  and  _65
REMARK   30  A    between atoms: _67  and  _69
REMARK   31  A    between atoms: _69  and  _70
REMARK   32  A    between atoms: _69  and  _72
REMARK   33  A    between atoms: _72  and  _73
REMARK   34  A    between atoms: _78  and  _80
REMARK   35  A    between atoms: _80  and  _81
REMARK   36  A    between atoms: _80  and  _83
REMARK   37  A    between atoms: _83  and  _84
REMARK   38  A    between atoms: _86  and  _88
REMARK   39  A    between atoms: _88  and  _89
REMARK   40  A    between atoms: _88  and  _91
REMARK   41  A    between atoms: _91  and  _92
REMARK   42  A    between atoms: _94  and  _96
REMARK   43  A    between atoms: _96  and  _97
REMARK   44  A    between atoms: _96  and  _99
REMARK   45  A    between atoms: _99  and  _100
REMARK   46  A    between atoms: _103  and  _105
REMARK   47  A    between atoms: _105  and  _106
REMARK   48  A    between atoms: _109  and  _111
REMARK   49  A    between atoms: _111  and  _112
REMARK   50  A    between atoms: _111  and  _114
REMARK   51  A    between atoms: _114  and  _115
REMARK   52  A    between atoms: _118  and  _120
REMARK   53  A    between atoms: _120  and  _121
REMARK   54  A    between atoms: _120  and  _123
REMARK   55  A    between atoms: _123  and  _124
REMARK   56  A    between atoms: _124  and  _125
REMARK   57  A    between atoms: _125  and  _126
REMARK   58  A    between atoms: _126  and  _127
REMARK   59  A    between atoms: _131  and  _133
REMARK   60  A    between atoms: _133  and  _134
REMARK   61  A    between atoms: _133  and  _136
REMARK   62  A    between atoms: _136  and  _137
REMARK   63  A    between atoms: _140  and  _142
REMARK   64  A    between atoms: _142  and  _143
REMARK   65  A    between atoms: _142  and  _145
REMARK   66  A    between atoms: _145  and  _146
REMARK   67  A    between atoms: _149  and  _151
REMARK   68  A    between atoms: _151  and  _152
REMARK   69  A    between atoms: _151  and  _154
REMARK   70  A    between atoms: _157  and  _159
REMARK   71  A    between atoms: _159  and  _160
REMARK   72  A    between atoms: _159  and  _162
REMARK   73  A    between atoms: _162  and  _163
REMARK   74  A    between atoms: _166  and  _168
REMARK   75  A    between atoms: _168  and  _169
REMARK   76  A    between atoms: _168  and  _171
REMARK   77  A    between atoms: _171  and  _172
REMARK   78  A    between atoms: _175  and  _177
REMARK   79  A    between atoms: _177  and  _178
REMARK   80  A    between atoms: _180  and  _182
REMARK   81  A    between atoms: _182  and  _183
REMARK   82  A    between atoms: _182  and  _185
REMARK   83  A    between atoms: _185  and  _186
REMARK   84  A    between atoms: _189  and  _191
REMARK   85  A    between atoms: _191  and  _192
REMARK   86  A    between atoms: _194  and  _196
REMARK   87  A    between atoms: _196  and  _197
REMARK   88  A    between atoms: _196  and  _199
REMARK   89  A    between atoms: _199  and  _200
REMARK   90  A    between atoms: _200  and  _201
REMARK   91  A    between atoms: _203  and  _205
REMARK   92  A    between atoms: _205  and  _206
REMARK   93  A    between atoms: _205  and  _208
REMARK   94  A    between atoms: _208  and  _209
REMARK   95  A    between atoms: _212  and  _214
REMARK   96  A    between atoms: _214  and  _215
REMARK   97  A    between atoms: _214  and  _217
REMARK   98  A    between atoms: _217  and  _218
REMARK   99  A    between atoms: _221  and  _223
REMARK  100  A    between atoms: _223  and  _224
REMARK  101  A    between atoms: _223  and  _226
REMARK  102  A    between atoms: _226  and  _227
REMARK  103  A    between atoms: _230  and  _232
REMARK  104  A    between atoms: _232  and  _233
REMARK  105  A    between atoms: _232  and  _235
REMARK  106  A    between atoms: _235  and  _236
REMARK  107  A    between atoms: _239  and  _241
REMARK  108  A    between atoms: _241  and  _242
REMARK  109  A    between atoms: _241  and  _244
REMARK  110  A    between atoms: _244  and  _245
REMARK  111  A    between atoms: _250  and  _252
REMARK  112  A    between atoms: _252  and  _253
REMARK  113  A    between atoms: _252  and  _255
REMARK  114  A    between atoms: _255  and  _256
REMARK  115  A    between atoms: _259  and  _261
REMARK  116  A    between atoms: _261  and  _262
REMARK  117  A    between atoms: _264  and  _266
REMARK  118  A    between atoms: _266  and  _267
REMARK  119  A    between atoms: _266  and  _269
REMARK  120  A    between atoms: _269  and  _270
REMARK  121  A    between atoms: _273  and  _275
REMARK  122  A    between atoms: _275  and  _276
REMARK  123  A    between atoms: _275  and  _278
REMARK  124  A    between atoms: _278  and  _279
REMARK  125  A    between atoms: _282  and  _284
REMARK  126  A    between atoms: _284  and  _285
REMARK  127  A    between atoms: _288  and  _290
REMARK  128  A    between atoms: _290  and  _291
REMARK  129  A    between atoms: _290  and  _293
REMARK  130  A    between atoms: _293  and  _294
REMARK  131  A    between atoms: _294  and  _295
REMARK  132  A    between atoms: _295  and  _296
REMARK  133  A    between atoms: _296  and  _297
REMARK  134  A    between atoms: _301  and  _303
REMARK  135  A    between atoms: _303  and  _304
REMARK  136  A    between atoms: _303  and  _306
REMARK  137  A    between atoms: _306  and  _307
REMARK  138  A    between atoms: _310  and  _312
REMARK  139  A    between atoms: _312  and  _313
REMARK  140  A    between atoms: _315  and  _317
REMARK  141  A    between atoms: _317  and  _318
REMARK  142  A    between atoms: _317  and  _320
REMARK  143  A    between atoms: _323  and  _325
REMARK  144  A    between atoms: _325  and  _326
REMARK  145  A    between atoms: _328  and  _330
REMARK  146  A    between atoms: _330  and  _331
REMARK  147  A    between atoms: _330  and  _333
REMARK  148  A    between atoms: _333  and  _334
REMARK  149  A    between atoms: _340  and  _342
REMARK  150  A    between atoms: _342  and  _343
REMARK  151  A    between atoms: _342  and  _345
REMARK  152  A    between atoms: _345  and  _346
REMARK  153  A    between atoms: _351  and  _352
REMARK  154  A    between atoms: _354  and  _356
REMARK  155  A    between atoms: _356  and  _357
REMARK  156  A    between atoms: _356  and  _359
REMARK  157  A    between atoms: _359  and  _360
REMARK  158  A    between atoms: _365  and  _366
REMARK  159  A    between atoms: _368  and  _370
REMARK  160  A    between atoms: _370  and  _371
REMARK  161  A    between atoms: _370  and  _373
REMARK  162  A    between atoms: _376  and  _378
REMARK  163  A    between atoms: _378  and  _379
REMARK  164  A    between atoms: _378  and  _381
REMARK  165  A    between atoms: _381  and  _382
REMARK  166  A    between atoms: _385  and  _387
REMARK  167  A    between atoms: _387  and  _388
REMARK  168  A    between atoms: _387  and  _390
REMARK  169  A    between atoms: _393  and  _395
REMARK  170  A    between atoms: _395  and  _396
REMARK  171  A    between atoms: _395  and  _398
REMARK  172  A    between atoms: _398  and  _399
REMARK  173  A    between atoms: _402  and  _404
REMARK  174  A    between atoms: _404  and  _405
REMARK  175  A    between atoms: _404  and  _407
REMARK  176  A    between atoms: _407  and  _408
REMARK  177  A    between atoms: _411  and  _413
REMARK  178  A    between atoms: _413  and  _414
REMARK  179  A    between atoms: _413  and  _416
REMARK  180  A    between atoms: _416  and  _417
REMARK  181  A    between atoms: _417  and  _418
REMARK  182  A    between atoms: _418  and  _419
REMARK  183  A    between atoms: _419  and  _420
REMARK  184  A    between atoms: _424  and  _426
REMARK  185  A    between atoms: _426  and  _427
REMARK  186  A    between atoms: _426  and  _429
REMARK  187  A    between atoms: _429  and  _430
REMARK  188  A    between atoms: _435  and  _437
REMARK  189  A    between atoms: _437  and  _438
REMARK  190  A    between atoms: _441  and  _443
REMARK  191  A    between atoms: _443  and  _444
REMARK  192  A    between atoms: _443  and  _446
REMARK  193  A    between atoms: _446  and  _447
REMARK  194  A    between atoms: _457  and  _459
REMARK  195  A    between atoms: _459  and  _460
REMARK  196  A    between atoms: _459  and  _462
REMARK  197  A    between atoms: _462  and  _463
REMARK  198  A    between atoms: _463  and  _464
REMARK  199  A    between atoms: _467  and  _469
REMARK  200  A    between atoms: _469  and  _470
REMARK  201  A    between atoms: _469  and  _472
REMARK  202  A    between atoms: _472  and  _473
REMARK  203  A    between atoms: _475  and  _477
REMARK  204  A    between atoms: _477  and  _478
REMARK  205  A    between atoms: _477  and  _480
REMARK  206  A    between atoms: _480  and  _481
REMARK  207  A    between atoms: _487  and  _489
REMARK  208  A    between atoms: _489  and  _490
REMARK  209  A    between atoms: _489  and  _492
REMARK  210  A    between atoms: _492  and  _493
REMARK  211  A    between atoms: _496  and  _498
REMARK  212  A    between atoms: _498  and  _499
REMARK  213  A    between atoms: _498  and  _501
REMARK  214  A    between atoms: _504  and  _506
REMARK  215  A    between atoms: _506  and  _507
REMARK  216  A    between atoms: _509  and  _511
REMARK  217  A    between atoms: _511  and  _512
REMARK  218  A    between atoms: _511  and  _514
REMARK  219  A    between atoms: _514  and  _515
REMARK  220  A    between atoms: _518  and  _520
REMARK  221  A    between atoms: _520  and  _521
REMARK  222  A    between atoms: _520  and  _523
REMARK  223  A    between atoms: _523  and  _524
REMARK  224  A    between atoms: _524  and  _525
REMARK  225  A    between atoms: _525  and  _526
REMARK  226  A    between atoms: _526  and  _527
REMARK  227  A    between atoms: _531  and  _533
REMARK  228  A    between atoms: _533  and  _534
REMARK  229  A    between atoms: _533  and  _536
REMARK  230  A    between atoms: _539  and  _541
REMARK  231  A    between atoms: _541  and  _542
REMARK  232  A    between atoms: _541  and  _544
REMARK  233  A    between atoms: _544  and  _545
REMARK  234  A    between atoms: _550  and  _551
REMARK                            x       y       z     vdW  Elec       q    Type
REMARK                         _______ _______ _______ _____ _____    ______ ____
ROOT
ATOM      1  O   HOH     1       0.799   5.582  19.070  0.00  0.00    +0.000 OA
ENDROOT
TORSDOF 0
REMARK  Name = ../refined-set-2016/4cwn/4cwn_pocket.pdb
REMARK  234 active torsions:
REMARK  status: ('A' for Active; 'I' for Inactive)
REMARK    1  A    between atoms: _1  and  _3
REMARK    2  A    between atoms: _3  and  _4
REMARK    3  A    between atoms: _3  and  _6
REMARK    4  A    between atoms: _6  and  _7
REMARK    5  A    between atoms: _13  and  _15
REMARK    6  A    between atoms: _15  and  _16
REMARK    7  A    between atoms: _15  and  _18
REMARK    8  A    between atoms: _18  and  _19
REMARK    9  A    between atoms: _22  and  _24
REMARK   10  A    between atoms: _24  and  _25
REMARK   11  A    between atoms: _24  and  _27
REMARK   12  A    between atoms: _27  and  _28
REMARK   13  A    between atoms: _31  and  _33
REMARK   14  A    between atoms: _33  and  _34
REMARK   15  A    between atoms: _33  and  _36
REMARK   16  A    between atoms: _36  and  _37
REMARK   17  A    between atoms: _37  and  _38
REMARK   18  A    between atoms: _41  and  _43
REMARK   19  A    between atoms: _43  and  _44
REMARK   20  A    between atoms: _43  and  _46
REMARK   21  A    between atoms: _46  and  _47
REMARK   22  A    between atoms: _50  and  _52
REMARK   23  A    between atoms: _52  and  _53
REMARK   24  A    between atoms: _52  and  _55
REMARK   25  A    between atoms: _55  and  _56
REMARK   26  A    between atoms: _59  and  _61
REMARK   27  A    between atoms: _61  and  _62
REMARK   28  A    between atoms: _61  and  _64
REMARK   29  A    between atoms: _64  and  _65
REMARK   30  A    between atoms: _67  and  _69
REMARK   31  A    between atoms: _69  and  _70
REMARK   32  A    between atoms: _69  and  _72
REMARK   33  A    between atoms: _72  and  _73
REMARK   34  A    between atoms: _78  and  _80
REMARK   35  A    between atoms: _80  and  _81
REMARK   36  A    between atoms: _80  and  _83
REMARK   37  A    between atoms: _83  and  _84
REMARK   38  A    between atoms: _86  and  _88
REMARK   39  A    between atoms: _88  and  _89
REMARK   40  A    between atoms: _88  and  _91
REMARK   41  A    between atoms: _91  and  _92
REMARK   42  A    between atoms: _94  and  _96
REMARK   43  A    between atoms: _96  and  _97
REMARK   44  A    between atoms: _96  and  _99
REMARK   45  A    between atoms: _99  and  _100
REMARK   46  A    between atoms: _103  and  _105
REMARK   47  A    between atoms: _105  and  _106
REMARK   48  A    between atoms: _109  and  _111
REMARK   49  A    between atoms: _111  and  _112
REMARK   50  A    between atoms: _111  and  _114
REMARK   51  A    between atoms: _114  and  _115
REMARK   52  A    between atoms: _118  and  _120
REMARK   53  A    between atoms: _120  and  _121
REMARK   54  A    between atoms: _120  and  _123
REMARK   55  A    between atoms: _123  and  _124
REMARK   56  A    between atoms: _124  and  _125
REMARK   57  A    between atoms: _125  and  _126
REMARK   58  A    between atoms: _126  and  _127
REMARK   59  A    between atoms: _131  and  _133
REMARK   60  A    between atoms: _133  and  _134
REMARK   61  A    between atoms: _133  and  _136
REMARK   62  A    between atoms: _136  and  _137
REMARK   63  A    between atoms: _140  and  _142
REMARK   64  A    between atoms: _142  and  _143
REMARK   65  A    between atoms: _142  and  _145
REMARK   66  A    between atoms: _145  and  _146
REMARK   67  A    between atoms: _149  and  _151
REMARK   68  A    between atoms: _151  and  _152
REMARK   69  A    between atoms: _151  and  _154
REMARK   70  A    between atoms: _157  and  _159
REMARK   71  A    between atoms: _159  and  _160
REMARK   72  A    between atoms: _159  and  _162
REMARK   73  A    between atoms: _162  and  _163
REMARK   74  A    between atoms: _166  and  _168
REMARK   75  A    between atoms: _168  and  _169
REMARK   76  A    between atoms: _168  and  _171
REMARK   77  A    between atoms: _171  and  _172
REMARK   78  A    between atoms: _175  and  _177
REMARK   79  A    between atoms: _177  and  _178
REMARK   80  A    between atoms: _180  and  _182
REMARK   81  A    between atoms: _182  and  _183
REMARK   82  A    between atoms: _182  and  _185
REMARK   83  A    between atoms: _185  and  _186
REMARK   84  A    between atoms: _189  and  _191
REMARK   85  A    between atoms: _191  and  _192
REMARK   86  A    between atoms: _194  and  _196
REMARK   87  A    between atoms: _196  and  _197
REMARK   88  A    between atoms: _196  and  _199
REMARK   89  A    between atoms: _199  and  _200
REMARK   90  A    between atoms: _200  and  _201
REMARK   91  A    between atoms: _203  and  _205
REMARK   92  A    between atoms: _205  and  _206
REMARK   93  A    between atoms: _205  and  _208
REMARK   94  A    between atoms: _208  and  _209
REMARK   95  A    between atoms: _212  and  _214
REMARK   96  A    between atoms: _214  and  _215
REMARK   97  A    between atoms: _214  and  _217
REMARK   98  A    between atoms: _217  and  _218
REMARK   99  A    between atoms: _221  and  _223
REMARK  100  A    between atoms: _223  and  _224
REMARK  101  A    between atoms: _223  and  _226
REMARK  102  A    between atoms: _226  and  _227
REMARK  103  A    between atoms: _230  and  _232
REMARK  104  A    between atoms: _232  and  _233
REMARK  105  A    between atoms: _232  and  _235
REMARK  106  A    between atoms: _235  and  _236
REMARK  107  A    between atoms: _239  and  _241
REMARK  108  A    between atoms: _241  and  _242
REMARK  109  A    between atoms: _241  and  _244
REMARK  110  A    between atoms: _244  and  _245
REMARK  111  A    between atoms: _250  and  _252
REMARK  112  A    between atoms: _252  and  _253
REMARK  113  A    between atoms: _252  and  _255
REMARK  114  A    between atoms: _255  and  _256
REMARK  115  A    between atoms: _259  and  _261
REMARK  116  A    between atoms: _261  and  _262
REMARK  117  A    between atoms: _264  and  _266
REMARK  118  A    between atoms: _266  and  _267
REMARK  119  A    between atoms: _266  and  _269
REMARK  120  A    between atoms: _269  and  _270
REMARK  121  A    between atoms: _273  and  _275
REMARK  122  A    between atoms: _275  and  _276
REMARK  123  A    between atoms: _275  and  _278
REMARK  124  A    between atoms: _278  and  _279
REMARK  125  A    between atoms: _282  and  _284
REMARK  126  A    between atoms: _284  and  _285
REMARK  127  A    between atoms: _288  and  _290
REMARK  128  A    between atoms: _290  and  _291
REMARK  129  A    between atoms: _290  and  _293
REMARK  130  A    between atoms: _293  and  _294
REMARK  131  A    between atoms: _294  and  _295
REMARK  132  A    between atoms: _295  and  _296
REMARK  133  A    between atoms: _296  and  _297
REMARK  134  A    between atoms: _301  and  _303
REMARK  135  A    between atoms: _303  and  _304
REMARK  136  A    between atoms: _303  and  _306
REMARK  137  A    between atoms: _306  and  _307
REMARK  138  A    between atoms: _310  and  _312
REMARK  139  A    between atoms: _312  and  _313
REMARK  140  A    between atoms: _315  and  _317
REMARK  141  A    between atoms: _317  and  _318
REMARK  142  A    between atoms: _317  and  _320
REMARK  143  A    between atoms: _323  and  _325
REMARK  144  A    between atoms: _325  and  _326
REMARK  145  A    between atoms: _328  and  _330
REMARK  146  A    between atoms: _330  and  _331
REMARK  147  A    between atoms: _330  and  _333
REMARK  148  A    between atoms: _333  and  _334
REMARK  149  A    between atoms: _340  and  _342
REMARK  150  A    between atoms: _342  and  _343
REMARK  151  A    between atoms: _342  and  _345
REMARK  152  A    between atoms: _345  and  _346
REMARK  153  A    between atoms: _351  and  _352
REMARK  154  A    between atoms: _354  and  _356
REMARK  155  A    between atoms: _356  and  _357
REMARK  156  A    between atoms: _356  and  _359
REMARK  157  A    between atoms: _359  and  _360
REMARK  158  A    between atoms: _365  and  _366
REMARK  159  A    between atoms: _368  and  _370
REMARK  160  A    between atoms: _370  and  _371
REMARK  161  A    between atoms: _370  and  _373
REMARK  162  A    between atoms: _376  and  _378
REMARK  163  A    between atoms: _378  and  _379
REMARK  164  A    between atoms: _378  and  _381
REMARK  165  A    between atoms: _381  and  _382
REMARK  166  A    between atoms: _385  and  _387
REMARK  167  A    between atoms: _387  and  _388
REMARK  168  A    between atoms: _387  and  _390
REMARK  169  A    between atoms: _393  and  _395
REMARK  170  A    between atoms: _395  and  _396
REMARK  171  A    between atoms: _395  and  _398
REMARK  172  A    between atoms: _398  and  _399
REMARK  173  A    between atoms: _402  and  _404
REMARK  174  A    between atoms: _404  and  _405
REMARK  175  A    between atoms: _404  and  _407
REMARK  176  A    between atoms: _407  and  _408
REMARK  177  A    between atoms: _411  and  _413
REMARK  178  A    between atoms: _413  and  _414
REMARK  179  A    between atoms: _413  and  _416
REMARK  180  A    between atoms: _416  and  _417
REMARK  181  A    between atoms: _417  and  _418
REMARK  182  A    between atoms: _418  and  _419
REMARK  183  A    between atoms: _419  and  _420
REMARK  184  A    between atoms: _424  and  _426
REMARK  185  A    between atoms: _426  and  _427
REMARK  186  A    between atoms: _426  and  _429
REMARK  187  A    between atoms: _429  and  _430
REMARK  188  A    between atoms: _435  and  _437
REMARK  189  A    between atoms: _437  and  _438
REMARK  190  A    between atoms: _441  and  _443
REMARK  191  A    between atoms: _443  and  _444
REMARK  192  A    between atoms: _443  and  _446
REMARK  193  A    between atoms: _446  and  _447
REMARK  194  A    between atoms: _457  and  _459
REMARK  195  A    between atoms: _459  and  _460
REMARK  196  A    between atoms: _459  and  _462
REMARK  197  A    between atoms: _462  and  _463
REMARK  198  A    between atoms: _463  and  _464
REMARK  199  A    between atoms: _467  and  _469
REMARK  200  A    between atoms: _469  and  _470
REMARK  201  A    between atoms: _469  and  _472
REMARK  202  A    between atoms: _472  and  _473
REMARK  203  A    between atoms: _475  and  _477
REMARK  204  A    between atoms: _477  and  _478
REMARK  205  A    between atoms: _477  and  _480
REMARK  206  A    between atoms: _480  and  _481
REMARK  207  A    between atoms: _487  and  _489
REMARK  208  A    between atoms: _489  and  _490
REMARK  209  A    between atoms: _489  and  _492
REMARK  210  A    between atoms: _492  and  _493
REMARK  211  A    between atoms: _496  and  _498
REMARK  212  A    between atoms: _498  and  _499
REMARK  213  A    between atoms: _498  and  _501
REMARK  214  A    between atoms: _504  and  _506
REMARK  215  A    between atoms: _506  and  _507
REMARK  216  A    between atoms: _509  and  _511
REMARK  217  A    between atoms: _511  and  _512
REMARK  218  A    between atoms: _511  and  _514
REMARK  219  A    between atoms: _514  and  _515
REMARK  220  A    between atoms: _518  and  _520
REMARK  221  A    between atoms: _520  and  _521
REMARK  222  A    between atoms: _520  and  _523
REMARK  223  A    between atoms: _523  and  _524
REMARK  224  A    between atoms: _524  and  _525
REMARK  225  A    between atoms: _525  and  _526
REMARK  226  A    between atoms: _526  and  _527
REMARK  227  A    between atoms: _531  and  _533
REMARK  228  A    between atoms: _533  and  _534
REMARK  229  A    between atoms: _533  and  _536
REMARK  230  A    between atoms: _539  and  _541
REMARK  231  A    between atoms: _541  and  _542
REMARK  232  A    between atoms: _541  and  _544
REMARK  233  A    between atoms: _544  and  _545
REMARK  234  A    between atoms: _550  and  _551
REMARK                            x       y       z     vdW  Elec       q    Type
REMARK                         _______ _______ _______ _____ _____    ______ ____
ROOT
ATOM      1  O   HOH     1       0.111   7.457  24.110  0.00  0.00    +0.000 OA
ENDROOT
TORSDOF 0
REMARK  Name = ../refined-set-2016/4cwn/4cwn_pocket.pdb
REMARK  234 active torsions:
REMARK  status: ('A' for Active; 'I' for Inactive)
REMARK    1  A    between atoms: _1  and  _3
REMARK    2  A    between atoms: _3  and  _4
REMARK    3  A    between atoms: _3  and  _6
REMARK    4  A    between atoms: _6  and  _7
REMARK    5  A    between atoms: _13  and  _15
REMARK    6  A    between atoms: _15  and  _16
REMARK    7  A    between atoms: _15  and  _18
REMARK    8  A    between atoms: _18  and  _19
REMARK    9  A    between atoms: _22  and  _24
REMARK   10  A    between atoms: _24  and  _25
REMARK   11  A    between atoms: _24  and  _27
REMARK   12  A    between atoms: _27  and  _28
REMARK   13  A    between atoms: _31  and  _33
REMARK   14  A    between atoms: _33  and  _34
REMARK   15  A    between atoms: _33  and  _36
REMARK   16  A    between atoms: _36  and  _37
REMARK   17  A    between atoms: _37  and  _38
REMARK   18  A    between atoms: _41  and  _43
REMARK   19  A    between atoms: _43  and  _44
REMARK   20  A    between atoms: _43  and  _46
REMARK   21  A    between atoms: _46  and  _47
REMARK   22  A    between atoms: _50  and  _52
REMARK   23  A    between atoms: _52  and  _53
REMARK   24  A    between atoms: _52  and  _55
REMARK   25  A    between atoms: _55  and  _56
REMARK   26  A    between atoms: _59  and  _61
REMARK   27  A    between atoms: _61  and  _62
REMARK   28  A    between atoms: _61  and  _64
REMARK   29  A    between atoms: _64  and  _65
REMARK   30  A    between atoms: _67  and  _69
REMARK   31  A    between atoms: _69  and  _70
REMARK   32  A    between atoms: _69  and  _72
REMARK   33  A    between atoms: _72  and  _73
REMARK   34  A    between atoms: _78  and  _80
REMARK   35  A    between atoms: _80  and  _81
REMARK   36  A    between atoms: _80  and  _83
REMARK   37  A    between atoms: _83  and  _84
REMARK   38  A    between atoms: _86  and  _88
REMARK   39  A    between atoms: _88  and  _89
REMARK   40  A    between atoms: _88  and  _91
REMARK   41  A    between atoms: _91  and  _92
REMARK   42  A    between atoms: _94  and  _96
REMARK   43  A    between atoms: _96  and  _97
REMARK   44  A    between atoms: _96  and  _99
REMARK   45  A    between atoms: _99  and  _100
REMARK   46  A    between atoms: _103  and  _105
REMARK   47  A    between atoms: _105  and  _106
REMARK   48  A    between atoms: _109  and  _111
REMARK   49  A    between atoms: _111  and  _112
REMARK   50  A    between atoms: _111  and  _114
REMARK   51  A    between atoms: _114  and  _115
REMARK   52  A    between atoms: _118  and  _120
REMARK   53  A    between atoms: _120  and  _121
REMARK   54  A    between atoms: _120  and  _123
REMARK   55  A    between atoms: _123  and  _124
REMARK   56  A    between atoms: _124  and  _125
REMARK   57  A    between atoms: _125  and  _126
REMARK   58  A    between atoms: _126  and  _127
REMARK   59  A    between atoms: _131  and  _133
REMARK   60  A    between atoms: _133  and  _134
REMARK   61  A    between atoms: _133  and  _136
REMARK   62  A    between atoms: _136  and  _137
REMARK   63  A    between atoms: _140  and  _142
REMARK   64  A    between atoms: _142  and  _143
REMARK   65  A    between atoms: _142  and  _145
REMARK   66  A    between atoms: _145  and  _146
REMARK   67  A    between atoms: _149  and  _151
REMARK   68  A    between atoms: _151  and  _152
REMARK   69  A    between atoms: _151  and  _154
REMARK   70  A    between atoms: _157  and  _159
REMARK   71  A    between atoms: _159  and  _160
REMARK   72  A    between atoms: _159  and  _162
REMARK   73  A    between atoms: _162  and  _163
REMARK   74  A    between atoms: _166  and  _168
REMARK   75  A    between atoms: _168  and  _169
REMARK   76  A    between atoms: _168  and  _171
REMARK   77  A    between atoms: _171  and  _172
REMARK   78  A    between atoms: _175  and  _177
REMARK   79  A    between atoms: _177  and  _178
REMARK   80  A    between atoms: _180  and  _182
REMARK   81  A    between atoms: _182  and  _183
REMARK   82  A    between atoms: _182  and  _185
REMARK   83  A    between atoms: _185  and  _186
REMARK   84  A    between atoms: _189  and  _191
REMARK   85  A    between atoms: _191  and  _192
REMARK   86  A    between atoms: _194  and  _196
REMARK   87  A    between atoms: _196  and  _197
REMARK   88  A    between atoms: _196  and  _199
REMARK   89  A    between atoms: _199  and  _200
REMARK   90  A    between atoms: _200  and  _201
REMARK   91  A    between atoms: _203  and  _205
REMARK   92  A    between atoms: _205  and  _206
REMARK   93  A    between atoms: _205  and  _208
REMARK   94  A    between atoms: _208  and  _209
REMARK   95  A    between atoms: _212  and  _214
REMARK   96  A    between atoms: _214  and  _215
REMARK   97  A    between atoms: _214  and  _217
REMARK   98  A    between atoms: _217  and  _218
REMARK   99  A    between atoms: _221  and  _223
REMARK  100  A    between atoms: _223  and  _224
REMARK  101  A    between atoms: _223  and  _226
REMARK  102  A    between atoms: _226  and  _227
REMARK  103  A    between atoms: _230  and  _232
REMARK  104  A    between atoms: _232  and  _233
REMARK  105  A    between atoms: _232  and  _235
REMARK  106  A    between atoms: _235  and  _236
REMARK  107  A    between atoms: _239  and  _241
REMARK  108  A    between atoms: _241  and  _242
REMARK  109  A    between atoms: _241  and  _244
REMARK  110  A    between atoms: _244  and  _245
REMARK  111  A    between atoms: _250  and  _252
REMARK  112  A    between atoms: _252  and  _253
REMARK  113  A    between atoms: _252  and  _255
REMARK  114  A    between atoms: _255  and  _256
REMARK  115  A    between atoms: _259  and  _261
REMARK  116  A    between atoms: _261  and  _262
REMARK  117  A    between atoms: _264  and  _266
REMARK  118  A    between atoms: _266  and  _267
REMARK  119  A    between atoms: _266  and  _269
REMARK  120  A    between atoms: _269  and  _270
REMARK  121  A    between atoms: _273  and  _275
REMARK  122  A    between atoms: _275  and  _276
REMARK  123  A    between atoms: _275  and  _278
REMARK  124  A    between atoms: _278  and  _279
REMARK  125  A    between atoms: _282  and  _284
REMARK  126  A    between atoms: _284  and  _285
REMARK  127  A    between atoms: _288  and  _290
REMARK  128  A    between atoms: _290  and  _291
REMARK  129  A    between atoms: _290  and  _293
REMARK  130  A    between atoms: _293  and  _294
REMARK  131  A    between atoms: _294  and  _295
REMARK  132  A    between atoms: _295  and  _296
REMARK  133  A    between atoms: _296  and  _297
REMARK  134  A    between atoms: _301  and  _303
REMARK  135  A    between atoms: _303  and  _304
REMARK  136  A    between atoms: _303  and  _306
REMARK  137  A    between atoms: _306  and  _307
REMARK  138  A    between atoms: _310  and  _312
REMARK  139  A    between atoms: _312  and  _313
REMARK  140  A    between atoms: _315  and  _317
REMARK  141  A    between atoms: _317  and  _318
REMARK  142  A    between atoms: _317  and  _320
REMARK  143  A    between atoms: _323  and  _325
REMARK  144  A    between atoms: _325  and  _326
REMARK  145  A    between atoms: _328  and  _330
REMARK  146  A    between atoms: _330  and  _331
REMARK  147  A    between atoms: _330  and  _333
REMARK  148  A    between atoms: _333  and  _334
REMARK  149  A    between atoms: _340  and  _342
REMARK  150  A    between atoms: _342  and  _343
REMARK  151  A    between atoms: _342  and  _345
REMARK  152  A    between atoms: _345  and  _346
REMARK  153  A    between atoms: _351  and  _352
REMARK  154  A    between atoms: _354  and  _356
REMARK  155  A    between atoms: _356  and  _357
REMARK  156  A    between atoms: _356  and  _359
REMARK  157  A    between atoms: _359  and  _360
REMARK  158  A    between atoms: _365  and  _366
REMARK  159  A    between atoms: _368  and  _370
REMARK  160  A    between atoms: _370  and  _371
REMARK  161  A    between atoms: _370  and  _373
REMARK  162  A    between atoms: _376  and  _378
REMARK  163  A    between atoms: _378  and  _379
REMARK  164  A    between atoms: _378  and  _381
REMARK  165  A    between atoms: _381  and  _382
REMARK  166  A    between atoms: _385  and  _387
REMARK  167  A    between atoms: _387  and  _388
REMARK  168  A    between atoms: _387  and  _390
REMARK  169  A    between atoms: _393  and  _395
REMARK  170  A    between atoms: _395  and  _396
REMARK  171  A    between atoms: _395  and  _398
REMARK  172  A    between atoms: _398  and  _399
REMARK  173  A    between atoms: _402  and  _404
REMARK  174  A    between atoms: _404  and  _405
REMARK  175  A    between atoms: _404  and  _407
REMARK  176  A    between atoms: _407  and  _408
REMARK  177  A    between atoms: _411  and  _413
REMARK  178  A    between atoms: _413  and  _414
REMARK  179  A    between atoms: _413  and  _416
REMARK  180  A    between atoms: _416  and  _417
REMARK  181  A    between atoms: _417  and  _418
REMARK  182  A    between atoms: _418  and  _419
REMARK  183  A    between atoms: _419  and  _420
REMARK  184  A    between atoms: _424  and  _426
REMARK  185  A    between atoms: _426  and  _427
REMARK  186  A    between atoms: _426  and  _429
REMARK  187  A    between atoms: _429  and  _430
REMARK  188  A    between atoms: _435  and  _437
REMARK  189  A    between atoms: _437  and  _438
REMARK  190  A    between atoms: _441  and  _443
REMARK  191  A    between atoms: _443  and  _444
REMARK  192  A    between atoms: _443  and  _446
REMARK  193  A    between atoms: _446  and  _447
REMARK  194  A    between atoms: _457  and  _459
REMARK  195  A    between atoms: _459  and  _460
REMARK  196  A    between atoms: _459  and  _462
REMARK  197  A    between atoms: _462  and  _463
REMARK  198  A    between atoms: _463  and  _464
REMARK  199  A    between atoms: _467  and  _469
REMARK  200  A    between atoms: _469  and  _470
REMARK  201  A    between atoms: _469  and  _472
REMARK  202  A    between atoms: _472  and  _473
REMARK  203  A    between atoms: _475  and  _477
REMARK  204  A    between atoms: _477  and  _478
REMARK  205  A    between atoms: _477  and  _480
REMARK  206  A    between atoms: _480  and  _481
REMARK  207  A    between atoms: _487  and  _489
REMARK  208  A    between atoms: _489  and  _490
REMARK  209  A    between atoms: _489  and  _492
REMARK  210  A    between atoms: _492  and  _493
REMARK  211  A    between atoms: _496  and  _498
REMARK  212  A    between atoms: _498  and  _499
REMARK  213  A    between atoms: _498  and  _501
REMARK  214  A    between atoms: _504  and  _506
REMARK  215  A    between atoms: _506  and  _507
REMARK  216  A    between atoms: _509  and  _511
REMARK  217  A    between atoms: _511  and  _512
REMARK  218  A    between atoms: _511  and  _514
REMARK  219  A    between atoms: _514  and  _515
REMARK  220  A    between atoms: _518  and  _520
REMARK  221  A    between atoms: _520  and  _521
REMARK  222  A    between atoms: _520  and  _523
REMARK  223  A    between atoms: _523  and  _524
REMARK  224  A    between atoms: _524  and  _525
REMARK  225  A    between atoms: _525  and  _526
REMARK  226  A    between atoms: _526  and  _527
REMARK  227  A    between atoms: _531  and  _533
REMARK  228  A    between atoms: _533  and  _534
REMARK  229  A    between atoms: _533  and  _536
REMARK  230  A    between atoms: _539  and  _541
REMARK  231  A    between atoms: _541  and  _542
REMARK  232  A    between atoms: _541  and  _544
REMARK  233  A    between atoms: _544  and  _545
REMARK  234  A    between atoms: _550  and  _551
REMARK                            x       y       z     vdW  Elec       q    Type
REMARK                         _______ _______ _______ _____ _____    ______ ____
ROOT
ATOM      1  O   HOH     1       4.461   6.840  18.241  0.00  0.00    +0.000 OA
ENDROOT
TORSDOF 0
REMARK  Name = ../refined-set-2016/4cwn/4cwn_pocket.pdb
REMARK  234 active torsions:
REMARK  status: ('A' for Active; 'I' for Inactive)
REMARK    1  A    between atoms: _1  and  _3
REMARK    2  A    between atoms: _3  and  _4
REMARK    3  A    between atoms: _3  and  _6
REMARK    4  A    between atoms: _6  and  _7
REMARK    5  A    between atoms: _13  and  _15
REMARK    6  A    between atoms: _15  and  _16
REMARK    7  A    between atoms: _15  and  _18
REMARK    8  A    between atoms: _18  and  _19
REMARK    9  A    between atoms: _22  and  _24
REMARK   10  A    between atoms: _24  and  _25
REMARK   11  A    between atoms: _24  and  _27
REMARK   12  A    between atoms: _27  and  _28
REMARK   13  A    between atoms: _31  and  _33
REMARK   14  A    between atoms: _33  and  _34
REMARK   15  A    between atoms: _33  and  _36
REMARK   16  A    between atoms: _36  and  _37
REMARK   17  A    between atoms: _37  and  _38
REMARK   18  A    between atoms: _41  and  _43
REMARK   19  A    between atoms: _43  and  _44
REMARK   20  A    between atoms: _43  and  _46
REMARK   21  A    between atoms: _46  and  _47
REMARK   22  A    between atoms: _50  and  _52
REMARK   23  A    between atoms: _52  and  _53
REMARK   24  A    between atoms: _52  and  _55
REMARK   25  A    between atoms: _55  and  _56
REMARK   26  A    between atoms: _59  and  _61
REMARK   27  A    between atoms: _61  and  _62
REMARK   28  A    between atoms: _61  and  _64
REMARK   29  A    between atoms: _64  and  _65
REMARK   30  A    between atoms: _67  and  _69
REMARK   31  A    between atoms: _69  and  _70
REMARK   32  A    between atoms: _69  and  _72
REMARK   33  A    between atoms: _72  and  _73
REMARK   34  A    between atoms: _78  and  _80
REMARK   35  A    between atoms: _80  and  _81
REMARK   36  A    between atoms: _80  and  _83
REMARK   37  A    between atoms: _83  and  _84
REMARK   38  A    between atoms: _86  and  _88
REMARK   39  A    between atoms: _88  and  _89
REMARK   40  A    between atoms: _88  and  _91
REMARK   41  A    between atoms: _91  and  _92
REMARK   42  A    between atoms: _94  and  _96
REMARK   43  A    between atoms: _96  and  _97
REMARK   44  A    between atoms: _96  and  _99
REMARK   45  A    between atoms: _99  and  _100
REMARK   46  A    between atoms: _103  and  _105
REMARK   47  A    between atoms: _105  and  _106
REMARK   48  A    between atoms: _109  and  _111
REMARK   49  A    between atoms: _111  and  _112
REMARK   50  A    between atoms: _111  and  _114
REMARK   51  A    between atoms: _114  and  _115
REMARK   52  A    between atoms: _118  and  _120
REMARK   53  A    between atoms: _120  and  _121
REMARK   54  A    between atoms: _120  and  _123
REMARK   55  A    between atoms: _123  and  _124
REMARK   56  A    between atoms: _124  and  _125
REMARK   57  A    between atoms: _125  and  _126
REMARK   58  A    between atoms: _126  and  _127
REMARK   59  A    between atoms: _131  and  _133
REMARK   60  A    between atoms: _133  and  _134
REMARK   61  A    between atoms: _133  and  _136
REMARK   62  A    between atoms: _136  and  _137
REMARK   63  A    between atoms: _140  and  _142
REMARK   64  A    between atoms: _142  and  _143
REMARK   65  A    between atoms: _142  and  _145
REMARK   66  A    between atoms: _145  and  _146
REMARK   67  A    between atoms: _149  and  _151
REMARK   68  A    between atoms: _151  and  _152
REMARK   69  A    between atoms: _151  and  _154
REMARK   70  A    between atoms: _157  and  _159
REMARK   71  A    between atoms: _159  and  _160
REMARK   72  A    between atoms: _159  and  _162
REMARK   73  A    between atoms: _162  and  _163
REMARK   74  A    between atoms: _166  and  _168
REMARK   75  A    between atoms: _168  and  _169
REMARK   76  A    between atoms: _168  and  _171
REMARK   77  A    between atoms: _171  and  _172
REMARK   78  A    between atoms: _175  and  _177
REMARK   79  A    between atoms: _177  and  _178
REMARK   80  A    between atoms: _180  and  _182
REMARK   81  A    between atoms: _182  and  _183
REMARK   82  A    between atoms: _182  and  _185
REMARK   83  A    between atoms: _185  and  _186
REMARK   84  A    between atoms: _189  and  _191
REMARK   85  A    between atoms: _191  and  _192
REMARK   86  A    between atoms: _194  and  _196
REMARK   87  A    between atoms: _196  and  _197
REMARK   88  A    between atoms: _196  and  _199
REMARK   89  A    between atoms: _199  and  _200
REMARK   90  A    between atoms: _200  and  _201
REMARK   91  A    between atoms: _203  and  _205
REMARK   92  A    between atoms: _205  and  _206
REMARK   93  A    between atoms: _205  and  _208
REMARK   94  A    between atoms: _208  and  _209
REMARK   95  A    between atoms: _212  and  _214
REMARK   96  A    between atoms: _214  and  _215
REMARK   97  A    between atoms: _214  and  _217
REMARK   98  A    between atoms: _217  and  _218
REMARK   99  A    between atoms: _221  and  _223
REMARK  100  A    between atoms: _223  and  _224
REMARK  101  A    between atoms: _223  and  _226
REMARK  102  A    between atoms: _226  and  _227
REMARK  103  A    between atoms: _230  and  _232
REMARK  104  A    between atoms: _232  and  _233
REMARK  105  A    between atoms: _232  and  _235
REMARK  106  A    between atoms: _235  and  _236
REMARK  107  A    between atoms: _239  and  _241
REMARK  108  A    between atoms: _241  and  _242
REMARK  109  A    between atoms: _241  and  _244
REMARK  110  A    between atoms: _244  and  _245
REMARK  111  A    between atoms: _250  and  _252
REMARK  112  A    between atoms: _252  and  _253
REMARK  113  A    between atoms: _252  and  _255
REMARK  114  A    between atoms: _255  and  _256
REMARK  115  A    between atoms: _259  and  _261
REMARK  116  A    between atoms: _261  and  _262
REMARK  117  A    between atoms: _264  and  _266
REMARK  118  A    between atoms: _266  and  _267
REMARK  119  A    between atoms: _266  and  _269
REMARK  120  A    between atoms: _269  and  _270
REMARK  121  A    between atoms: _273  and  _275
REMARK  122  A    between atoms: _275  and  _276
REMARK  123  A    between atoms: _275  and  _278
REMARK  124  A    between atoms: _278  and  _279
REMARK  125  A    between atoms: _282  and  _284
REMARK  126  A    between atoms: _284  and  _285
REMARK  127  A    between atoms: _288  and  _290
REMARK  128  A    between atoms: _290  and  _291
REMARK  129  A    between atoms: _290  and  _293
REMARK  130  A    between atoms: _293  and  _294
REMARK  131  A    between atoms: _294  and  _295
REMARK  132  A    between atoms: _295  and  _296
REMARK  133  A    between atoms: _296  and  _297
REMARK  134  A    between atoms: _301  and  _303
REMARK  135  A    between atoms: _303  and  _304
REMARK  136  A    between atoms: _303  and  _306
REMARK  137  A    between atoms: _306  and  _307
REMARK  138  A    between atoms: _310  and  _312
REMARK  139  A    between atoms: _312  and  _313
REMARK  140  A    between atoms: _315  and  _317
REMARK  141  A    between atoms: _317  and  _318
REMARK  142  A    between atoms: _317  and  _320
REMARK  143  A    between atoms: _323  and  _325
REMARK  144  A    between atoms: _325  and  _326
REMARK  145  A    between atoms: _328  and  _330
REMARK  146  A    between atoms: _330  and  _331
REMARK  147  A    between atoms: _330  and  _333
REMARK  148  A    between atoms: _333  and  _334
REMARK  149  A    between atoms: _340  and  _342
REMARK  150  A    between atoms: _342  and  _343
REMARK  151  A    between atoms: _342  and  _345
REMARK  152  A    between atoms: _345  and  _346
REMARK  153  A    between atoms: _351  and  _352
REMARK  154  A    between atoms: _354  and  _356
REMARK  155  A    between atoms: _356  and  _357
REMARK  156  A    between atoms: _356  and  _359
REMARK  157  A    between atoms: _359  and  _360
REMARK  158  A    between atoms: _365  and  _366
REMARK  159  A    between atoms: _368  and  _370
REMARK  160  A    between atoms: _370  and  _371
REMARK  161  A    between atoms: _370  and  _373
REMARK  162  A    between atoms: _376  and  _378
REMARK  163  A    between atoms: _378  and  _379
REMARK  164  A    between atoms: _378  and  _381
REMARK  165  A    between atoms: _381  and  _382
REMARK  166  A    between atoms: _385  and  _387
REMARK  167  A    between atoms: _387  and  _388
REMARK  168  A    between atoms: _387  and  _390
REMARK  169  A    between atoms: _393  and  _395
REMARK  170  A    between atoms: _395  and  _396
REMARK  171  A    between atoms: _395  and  _398
REMARK  172  A    between atoms: _398  and  _399
REMARK  173  A    between atoms: _402  and  _404
REMARK  174  A    between atoms: _404  and  _405
REMARK  175  A    between atoms: _404  and  _407
REMARK  176  A    between atoms: _407  and  _408
REMARK  177  A    between atoms: _411  and  _413
REMARK  178  A    between atoms: _413  and  _414
REMARK  179  A    between atoms: _413  and  _416
REMARK  180  A    between atoms: _416  and  _417
REMARK  181  A    between atoms: _417  and  _418
REMARK  182  A    between atoms: _418  and  _419
REMARK  183  A    between atoms: _419  and  _420
REMARK  184  A    between atoms: _424  and  _426
REMARK  185  A    between atoms: _426  and  _427
REMARK  186  A    between atoms: _426  and  _429
REMARK  187  A    between atoms: _429  and  _430
REMARK  188  A    between atoms: _435  and  _437
REMARK  189  A    between atoms: _437  and  _438
REMARK  190  A    between atoms: _441  and  _443
REMARK  191  A    between atoms: _443  and  _444
REMARK  192  A    between atoms: _443  and  _446
REMARK  193  A    between atoms: _446  and  _447
REMARK  194  A    between atoms: _457  and  _459
REMARK  195  A    between atoms: _459  and  _460
REMARK  196  A    between atoms: _459  and  _462
REMARK  197  A    between atoms: _462  and  _463
REMARK  198  A    between atoms: _463  and  _464
REMARK  199  A    between atoms: _467  and  _469
REMARK  200  A    between atoms: _469  and  _470
REMARK  201  A    between atoms: _469  and  _472
REMARK  202  A    between atoms: _472  and  _473
REMARK  203  A    between atoms: _475  and  _477
REMARK  204  A    between atoms: _477  and  _478
REMARK  205  A    between atoms: _477  and  _480
REMARK  206  A    between atoms: _480  and  _481
REMARK  207  A    between atoms: _487  and  _489
REMARK  208  A    between atoms: _489  and  _490
REMARK  209  A    between atoms: _489  and  _492
REMARK  210  A    between atoms: _492  and  _493
REMARK  211  A    between atoms: _496  and  _498
REMARK  212  A    between atoms: _498  and  _499
REMARK  213  A    between atoms: _498  and  _501
REMARK  214  A    between atoms: _504  and  _506
REMARK  215  A    between atoms: _506  and  _507
REMARK  216  A    between atoms: _509  and  _511
REMARK  217  A    between atoms: _511  and  _512
REMARK  218  A    between atoms: _511  and  _514
REMARK  219  A    between atoms: _514  and  _515
REMARK  220  A    between atoms: _518  and  _520
REMARK  221  A    between atoms: _520  and  _521
REMARK  222  A    between atoms: _520  and  _523
REMARK  223  A    between atoms: _523  and  _524
REMARK  224  A    between atoms: _524  and  _525
REMARK  225  A    between atoms: _525  and  _526
REMARK  226  A    between atoms: _526  and  _527
REMARK  227  A    between atoms: _531  and  _533
REMARK  228  A    between atoms: _533  and  _534
REMARK  229  A    between atoms: _533  and  _536
REMARK  230  A    between atoms: _539  and  _541
REMARK  231  A    between atoms: _541  and  _542
REMARK  232  A    between atoms: _541  and  _544
REMARK  233  A    between atoms: _544  and  _545
REMARK  234  A    between atoms: _550  and  _551
REMARK                            x       y       z     vdW  Elec       q    Type
REMARK                         _______ _______ _______ _____ _____    ______ ____
ROOT
ATOM      1  O   HOH     1       5.020   9.273  20.378  0.00  0.00    +0.000 OA
ENDROOT
TORSDOF 0
REMARK  Name = ../refined-set-2016/4cwn/4cwn_pocket.pdb
REMARK  234 active torsions:
REMARK  status: ('A' for Active; 'I' for Inactive)
REMARK    1  A    between atoms: _1  and  _3
REMARK    2  A    between atoms: _3  and  _4
REMARK    3  A    between atoms: _3  and  _6
REMARK    4  A    between atoms: _6  and  _7
REMARK    5  A    between atoms: _13  and  _15
REMARK    6  A    between atoms: _15  and  _16
REMARK    7  A    between atoms: _15  and  _18
REMARK    8  A    between atoms: _18  and  _19
REMARK    9  A    between atoms: _22  and  _24
REMARK   10  A    between atoms: _24  and  _25
REMARK   11  A    between atoms: _24  and  _27
REMARK   12  A    between atoms: _27  and  _28
REMARK   13  A    between atoms: _31  and  _33
REMARK   14  A    between atoms: _33  and  _34
REMARK   15  A    between atoms: _33  and  _36
REMARK   16  A    between atoms: _36  and  _37
REMARK   17  A    between atoms: _37  and  _38
REMARK   18  A    between atoms: _41  and  _43
REMARK   19  A    between atoms: _43  and  _44
REMARK   20  A    between atoms: _43  and  _46
REMARK   21  A    between atoms: _46  and  _47
REMARK   22  A    between atoms: _50  and  _52
REMARK   23  A    between atoms: _52  and  _53
REMARK   24  A    between atoms: _52  and  _55
REMARK   25  A    between atoms: _55  and  _56
REMARK   26  A    between atoms: _59  and  _61
REMARK   27  A    between atoms: _61  and  _62
REMARK   28  A    between atoms: _61  and  _64
REMARK   29  A    between atoms: _64  and  _65
REMARK   30  A    between atoms: _67  and  _69
REMARK   31  A    between atoms: _69  and  _70
REMARK   32  A    between atoms: _69  and  _72
REMARK   33  A    between atoms: _72  and  _73
REMARK   34  A    between atoms: _78  and  _80
REMARK   35  A    between atoms: _80  and  _81
REMARK   36  A    between atoms: _80  and  _83
REMARK   37  A    between atoms: _83  and  _84
REMARK   38  A    between atoms: _86  and  _88
REMARK   39  A    between atoms: _88  and  _89
REMARK   40  A    between atoms: _88  and  _91
REMARK   41  A    between atoms: _91  and  _92
REMARK   42  A    between atoms: _94  and  _96
REMARK   43  A    between atoms: _96  and  _97
REMARK   44  A    between atoms: _96  and  _99
REMARK   45  A    between atoms: _99  and  _100
REMARK   46  A    between atoms: _103  and  _105
REMARK   47  A    between atoms: _105  and  _106
REMARK   48  A    between atoms: _109  and  _111
REMARK   49  A    between atoms: _111  and  _112
REMARK   50  A    between atoms: _111  and  _114
REMARK   51  A    between atoms: _114  and  _115
REMARK   52  A    between atoms: _118  and  _120
REMARK   53  A    between atoms: _120  and  _121
REMARK   54  A    between atoms: _120  and  _123
REMARK   55  A    between atoms: _123  and  _124
REMARK   56  A    between atoms: _124  and  _125
REMARK   57  A    between atoms: _125  and  _126
REMARK   58  A    between atoms: _126  and  _127
REMARK   59  A    between atoms: _131  and  _133
REMARK   60  A    between atoms: _133  and  _134
REMARK   61  A    between atoms: _133  and  _136
REMARK   62  A    between atoms: _136  and  _137
REMARK   63  A    between atoms: _140  and  _142
REMARK   64  A    between atoms: _142  and  _143
REMARK   65  A    between atoms: _142  and  _145
REMARK   66  A    between atoms: _145  and  _146
REMARK   67  A    between atoms: _149  and  _151
REMARK   68  A    between atoms: _151  and  _152
REMARK   69  A    between atoms: _151  and  _154
REMARK   70  A    between atoms: _157  and  _159
REMARK   71  A    between atoms: _159  and  _160
REMARK   72  A    between atoms: _159  and  _162
REMARK   73  A    between atoms: _162  and  _163
REMARK   74  A    between atoms: _166  and  _168
REMARK   75  A    between atoms: _168  and  _169
REMARK   76  A    between atoms: _168  and  _171
REMARK   77  A    between atoms: _171  and  _172
REMARK   78  A    between atoms: _175  and  _177
REMARK   79  A    between atoms: _177  and  _178
REMARK   80  A    between atoms: _180  and  _182
REMARK   81  A    between atoms: _182  and  _183
REMARK   82  A    between atoms: _182  and  _185
REMARK   83  A    between atoms: _185  and  _186
REMARK   84  A    between atoms: _189  and  _191
REMARK   85  A    between atoms: _191  and  _192
REMARK   86  A    between atoms: _194  and  _196
REMARK   87  A    between atoms: _196  and  _197
REMARK   88  A    between atoms: _196  and  _199
REMARK   89  A    between atoms: _199  and  _200
REMARK   90  A    between atoms: _200  and  _201
REMARK   91  A    between atoms: _203  and  _205
REMARK   92  A    between atoms: _205  and  _206
REMARK   93  A    between atoms: _205  and  _208
REMARK   94  A    between atoms: _208  and  _209
REMARK   95  A    between atoms: _212  and  _214
REMARK   96  A    between atoms: _214  and  _215
REMARK   97  A    between atoms: _214  and  _217
REMARK   98  A    between atoms: _217  and  _218
REMARK   99  A    between atoms: _221  and  _223
REMARK  100  A    between atoms: _223  and  _224
REMARK  101  A    between atoms: _223  and  _226
REMARK  102  A    between atoms: _226  and  _227
REMARK  103  A    between atoms: _230  and  _232
REMARK  104  A    between atoms: _232  and  _233
REMARK  105  A    between atoms: _232  and  _235
REMARK  106  A    between atoms: _235  and  _236
REMARK  107  A    between atoms: _239  and  _241
REMARK  108  A    between atoms: _241  and  _242
REMARK  109  A    between atoms: _241  and  _244
REMARK  110  A    between atoms: _244  and  _245
REMARK  111  A    between atoms: _250  and  _252
REMARK  112  A    between atoms: _252  and  _253
REMARK  113  A    between atoms: _252  and  _255
REMARK  114  A    between atoms: _255  and  _256
REMARK  115  A    between atoms: _259  and  _261
REMARK  116  A    between atoms: _261  and  _262
REMARK  117  A    between atoms: _264  and  _266
REMARK  118  A    between atoms: _266  and  _267
REMARK  119  A    between atoms: _266  and  _269
REMARK  120  A    between atoms: _269  and  _270
REMARK  121  A    between atoms: _273  and  _275
REMARK  122  A    between atoms: _275  and  _276
REMARK  123  A    between atoms: _275  and  _278
REMARK  124  A    between atoms: _278  and  _279
REMARK  125  A    between atoms: _282  and  _284
REMARK  126  A    between atoms: _284  and  _285
REMARK  127  A    between atoms: _288  and  _290
REMARK  128  A    between atoms: _290  and  _291
REMARK  129  A    between atoms: _290  and  _293
REMARK  130  A    between atoms: _293  and  _294
REMARK  131  A    between atoms: _294  and  _295
REMARK  132  A    between atoms: _295  and  _296
REMARK  133  A    between atoms: _296  and  _297
REMARK  134  A    between atoms: _301  and  _303
REMARK  135  A    between atoms: _303  and  _304
REMARK  136  A    between atoms: _303  and  _306
REMARK  137  A    between atoms: _306  and  _307
REMARK  138  A    between atoms: _310  and  _312
REMARK  139  A    between atoms: _312  and  _313
REMARK  140  A    between atoms: _315  and  _317
REMARK  141  A    between atoms: _317  and  _318
REMARK  142  A    between atoms: _317  and  _320
REMARK  143  A    between atoms: _323  and  _325
REMARK  144  A    between atoms: _325  and  _326
REMARK  145  A    between atoms: _328  and  _330
REMARK  146  A    between atoms: _330  and  _331
REMARK  147  A    between atoms: _330  and  _333
REMARK  148  A    between atoms: _333  and  _334
REMARK  149  A    between atoms: _340  and  _342
REMARK  150  A    between atoms: _342  and  _343
REMARK  151  A    between atoms: _342  and  _345
REMARK  152  A    between atoms: _345  and  _346
REMARK  153  A    between atoms: _351  and  _352
REMARK  154  A    between atoms: _354  and  _356
REMARK  155  A    between atoms: _356  and  _357
REMARK  156  A    between atoms: _356  and  _359
REMARK  157  A    between atoms: _359  and  _360
REMARK  158  A    between atoms: _365  and  _366
REMARK  159  A    between atoms: _368  and  _370
REMARK  160  A    between atoms: _370  and  _371
REMARK  161  A    between atoms: _370  and  _373
REMARK  162  A    between atoms: _376  and  _378
REMARK  163  A    between atoms: _378  and  _379
REMARK  164  A    between atoms: _378  and  _381
REMARK  165  A    between atoms: _381  and  _382
REMARK  166  A    between atoms: _385  and  _387
REMARK  167  A    between atoms: _387  and  _388
REMARK  168  A    between atoms: _387  and  _390
REMARK  169  A    between atoms: _393  and  _395
REMARK  170  A    between atoms: _395  and  _396
REMARK  171  A    between atoms: _395  and  _398
REMARK  172  A    between atoms: _398  and  _399
REMARK  173  A    between atoms: _402  and  _404
REMARK  174  A    between atoms: _404  and  _405
REMARK  175  A    between atoms: _404  and  _407
REMARK  176  A    between atoms: _407  and  _408
REMARK  177  A    between atoms: _411  and  _413
REMARK  178  A    between atoms: _413  and  _414
REMARK  179  A    between atoms: _413  and  _416
REMARK  180  A    between atoms: _416  and  _417
REMARK  181  A    between atoms: _417  and  _418
REMARK  182  A    between atoms: _418  and  _419
REMARK  183  A    between atoms: _419  and  _420
REMARK  184  A    between atoms: _424  and  _426
REMARK  185  A    between atoms: _426  and  _427
REMARK  186  A    between atoms: _426  and  _429
REMARK  187  A    between atoms: _429  and  _430
REMARK  188  A    between atoms: _435  and  _437
REMARK  189  A    between atoms: _437  and  _438
REMARK  190  A    between atoms: _441  and  _443
REMARK  191  A    between atoms: _443  and  _444
REMARK  192  A    between atoms: _443  and  _446
REMARK  193  A    between atoms: _446  and  _447
REMARK  194  A    between atoms: _457  and  _459
REMARK  195  A    between atoms: _459  and  _460
REMARK  196  A    between atoms: _459  and  _462
REMARK  197  A    between atoms: _462  and  _463
REMARK  198  A    between atoms: _463  and  _464
REMARK  199  A    between atoms: _467  and  _469
REMARK  200  A    between atoms: _469  and  _470
REMARK  201  A    between atoms: _469  and  _472
REMARK  202  A    between atoms: _472  and  _473
REMARK  203  A    between atoms: _475  and  _477
REMARK  204  A    between atoms: _477  and  _478
REMARK  205  A    between atoms: _477  and  _480
REMARK  206  A    between atoms: _480  and  _481
REMARK  207  A    between atoms: _487  and  _489
REMARK  208  A    between atoms: _489  and  _490
REMARK  209  A    between atoms: _489  and  _492
REMARK  210  A    between atoms: _492  and  _493
REMARK  211  A    between atoms: _496  and  _498
REMARK  212  A    between atoms: _498  and  _499
REMARK  213  A    between atoms: _498  and  _501
REMARK  214  A    between atoms: _504  and  _506
REMARK  215  A    between atoms: _506  and  _507
REMARK  216  A    between atoms: _509  and  _511
REMARK  217  A    between atoms: _511  and  _512
REMARK  218  A    between atoms: _511  and  _514
REMARK  219  A    between atoms: _514  and  _515
REMARK  220  A    between atoms: _518  and  _520
REMARK  221  A    between atoms: _520  and  _521
REMARK  222  A    between atoms: _520  and  _523
REMARK  223  A    between atoms: _523  and  _524
REMARK  224  A    between atoms: _524  and  _525
REMARK  225  A    between atoms: _525  and  _526
REMARK  226  A    between atoms: _526  and  _527
REMARK  227  A    between atoms: _531  and  _533
REMARK  228  A    between atoms: _533  and  _534
REMARK  229  A    between atoms: _533  and  _536
REMARK  230  A    between atoms: _539  and  _541
REMARK  231  A    between atoms: _541  and  _542
REMARK  232  A    between atoms: _541  and  _544
REMARK  233  A    between atoms: _544  and  _545
REMARK  234  A    between atoms: _550  and  _551
REMARK                            x       y       z     vdW  Elec       q    Type
REMARK                         _______ _______ _______ _____ _____    ______ ____
ROOT
ATOM      1  O   HOH     1       0.461  12.649  21.486  0.00  0.00    +0.000 OA
ENDROOT
TORSDOF 0
REMARK  Name = ../refined-set-2016/4cwn/4cwn_pocket.pdb
REMARK  234 active torsions:
REMARK  status: ('A' for Active; 'I' for Inactive)
REMARK    1  A    between atoms: _1  and  _3
REMARK    2  A    between atoms: _3  and  _4
REMARK    3  A    between atoms: _3  and  _6
REMARK    4  A    between atoms: _6  and  _7
REMARK    5  A    between atoms: _13  and  _15
REMARK    6  A    between atoms: _15  and  _16
REMARK    7  A    between atoms: _15  and  _18
REMARK    8  A    between atoms: _18  and  _19
REMARK    9  A    between atoms: _22  and  _24
REMARK   10  A    between atoms: _24  and  _25
REMARK   11  A    between atoms: _24  and  _27
REMARK   12  A    between atoms: _27  and  _28
REMARK   13  A    between atoms: _31  and  _33
REMARK   14  A    between atoms: _33  and  _34
REMARK   15  A    between atoms: _33  and  _36
REMARK   16  A    between atoms: _36  and  _37
REMARK   17  A    between atoms: _37  and  _38
REMARK   18  A    between atoms: _41  and  _43
REMARK   19  A    between atoms: _43  and  _44
REMARK   20  A    between atoms: _43  and  _46
REMARK   21  A    between atoms: _46  and  _47
REMARK   22  A    between atoms: _50  and  _52
REMARK   23  A    between atoms: _52  and  _53
REMARK   24  A    between atoms: _52  and  _55
REMARK   25  A    between atoms: _55  and  _56
REMARK   26  A    between atoms: _59  and  _61
REMARK   27  A    between atoms: _61  and  _62
REMARK   28  A    between atoms: _61  and  _64
REMARK   29  A    between atoms: _64  and  _65
REMARK   30  A    between atoms: _67  and  _69
REMARK   31  A    between atoms: _69  and  _70
REMARK   32  A    between atoms: _69  and  _72
REMARK   33  A    between atoms: _72  and  _73
REMARK   34  A    between atoms: _78  and  _80
REMARK   35  A    between atoms: _80  and  _81
REMARK   36  A    between atoms: _80  and  _83
REMARK   37  A    between atoms: _83  and  _84
REMARK   38  A    between atoms: _86  and  _88
REMARK   39  A    between atoms: _88  and  _89
REMARK   40  A    between atoms: _88  and  _91
REMARK   41  A    between atoms: _91  and  _92
REMARK   42  A    between atoms: _94  and  _96
REMARK   43  A    between atoms: _96  and  _97
REMARK   44  A    between atoms: _96  and  _99
REMARK   45  A    between atoms: _99  and  _100
REMARK   46  A    between atoms: _103  and  _105
REMARK   47  A    between atoms: _105  and  _106
REMARK   48  A    between atoms: _109  and  _111
REMARK   49  A    between atoms: _111  and  _112
REMARK   50  A    between atoms: _111  and  _114
REMARK   51  A    between atoms: _114  and  _115
REMARK   52  A    between atoms: _118  and  _120
REMARK   53  A    between atoms: _120  and  _121
REMARK   54  A    between atoms: _120  and  _123
REMARK   55  A    between atoms: _123  and  _124
REMARK   56  A    between atoms: _124  and  _125
REMARK   57  A    between atoms: _125  and  _126
REMARK   58  A    between atoms: _126  and  _127
REMARK   59  A    between atoms: _131  and  _133
REMARK   60  A    between atoms: _133  and  _134
REMARK   61  A    between atoms: _133  and  _136
REMARK   62  A    between atoms: _136  and  _137
REMARK   63  A    between atoms: _140  and  _142
REMARK   64  A    between atoms: _142  and  _143
REMARK   65  A    between atoms: _142  and  _145
REMARK   66  A    between atoms: _145  and  _146
REMARK   67  A    between atoms: _149  and  _151
REMARK   68  A    between atoms: _151  and  _152
REMARK   69  A    between atoms: _151  and  _154
REMARK   70  A    between atoms: _157  and  _159
REMARK   71  A    between atoms: _159  and  _160
REMARK   72  A    between atoms: _159  and  _162
REMARK   73  A    between atoms: _162  and  _163
REMARK   74  A    between atoms: _166  and  _168
REMARK   75  A    between atoms: _168  and  _169
REMARK   76  A    between atoms: _168  and  _171
REMARK   77  A    between atoms: _171  and  _172
REMARK   78  A    between atoms: _175  and  _177
REMARK   79  A    between atoms: _177  and  _178
REMARK   80  A    between atoms: _180  and  _182
REMARK   81  A    between atoms: _182  and  _183
REMARK   82  A    between atoms: _182  and  _185
REMARK   83  A    between atoms: _185  and  _186
REMARK   84  A    between atoms: _189  and  _191
REMARK   85  A    between atoms: _191  and  _192
REMARK   86  A    between atoms: _194  and  _196
REMARK   87  A    between atoms: _196  and  _197
REMARK   88  A    between atoms: _196  and  _199
REMARK   89  A    between atoms: _199  and  _200
REMARK   90  A    between atoms: _200  and  _201
REMARK   91  A    between atoms: _203  and  _205
REMARK   92  A    between atoms: _205  and  _206
REMARK   93  A    between atoms: _205  and  _208
REMARK   94  A    between atoms: _208  and  _209
REMARK   95  A    between atoms: _212  and  _214
REMARK   96  A    between atoms: _214  and  _215
REMARK   97  A    between atoms: _214  and  _217
REMARK   98  A    between atoms: _217  and  _218
REMARK   99  A    between atoms: _221  and  _223
REMARK  100  A    between atoms: _223  and  _224
REMARK  101  A    between atoms: _223  and  _226
REMARK  102  A    between atoms: _226  and  _227
REMARK  103  A    between atoms: _230  and  _232
REMARK  104  A    between atoms: _232  and  _233
REMARK  105  A    between atoms: _232  and  _235
REMARK  106  A    between atoms: _235  and  _236
REMARK  107  A    between atoms: _239  and  _241
REMARK  108  A    between atoms: _241  and  _242
REMARK  109  A    between atoms: _241  and  _244
REMARK  110  A    between atoms: _244  and  _245
REMARK  111  A    between atoms: _250  and  _252
REMARK  112  A    between atoms: _252  and  _253
REMARK  113  A    between atoms: _252  and  _255
REMARK  114  A    between atoms: _255  and  _256
REMARK  115  A    between atoms: _259  and  _261
REMARK  116  A    between atoms: _261  and  _262
REMARK  117  A    between atoms: _264  and  _266
REMARK  118  A    between atoms: _266  and  _267
REMARK  119  A    between atoms: _266  and  _269
REMARK  120  A    between atoms: _269  and  _270
REMARK  121  A    between atoms: _273  and  _275
REMARK  122  A    between atoms: _275  and  _276
REMARK  123  A    between atoms: _275  and  _278
REMARK  124  A    between atoms: _278  and  _279
REMARK  125  A    between atoms: _282  and  _284
REMARK  126  A    between atoms: _284  and  _285
REMARK  127  A    between atoms: _288  and  _290
REMARK  128  A    between atoms: _290  and  _291
REMARK  129  A    between atoms: _290  and  _293
REMARK  130  A    between atoms: _293  and  _294
REMARK  131  A    between atoms: _294  and  _295
REMARK  132  A    between atoms: _295  and  _296
REMARK  133  A    between atoms: _296  and  _297
REMARK  134  A    between atoms: _301  and  _303
REMARK  135  A    between atoms: _303  and  _304
REMARK  136  A    between atoms: _303  and  _306
REMARK  137  A    between atoms: _306  and  _307
REMARK  138  A    between atoms: _310  and  _312
REMARK  139  A    between atoms: _312  and  _313
REMARK  140  A    between atoms: _315  and  _317
REMARK  141  A    between atoms: _317  and  _318
REMARK  142  A    between atoms: _317  and  _320
REMARK  143  A    between atoms: _323  and  _325
REMARK  144  A    between atoms: _325  and  _326
REMARK  145  A    between atoms: _328  and  _330
REMARK  146  A    between atoms: _330  and  _331
REMARK  147  A    between atoms: _330  and  _333
REMARK  148  A    between atoms: _333  and  _334
REMARK  149  A    between atoms: _340  and  _342
REMARK  150  A    between atoms: _342  and  _343
REMARK  151  A    between atoms: _342  and  _345
REMARK  152  A    between atoms: _345  and  _346
REMARK  153  A    between atoms: _351  and  _352
REMARK  154  A    between atoms: _354  and  _356
REMARK  155  A    between atoms: _356  and  _357
REMARK  156  A    between atoms: _356  and  _359
REMARK  157  A    between atoms: _359  and  _360
REMARK  158  A    between atoms: _365  and  _366
REMARK  159  A    between atoms: _368  and  _370
REMARK  160  A    between atoms: _370  and  _371
REMARK  161  A    between atoms: _370  and  _373
REMARK  162  A    between atoms: _376  and  _378
REMARK  163  A    between atoms: _378  and  _379
REMARK  164  A    between atoms: _378  and  _381
REMARK  165  A    between atoms: _381  and  _382
REMARK  166  A    between atoms: _385  and  _387
REMARK  167  A    between atoms: _387  and  _388
REMARK  168  A    between atoms: _387  and  _390
REMARK  169  A    between atoms: _393  and  _395
REMARK  170  A    between atoms: _395  and  _396
REMARK  171  A    between atoms: _395  and  _398
REMARK  172  A    between atoms: _398  and  _399
REMARK  173  A    between atoms: _402  and  _404
REMARK  174  A    between atoms: _404  and  _405
REMARK  175  A    between atoms: _404  and  _407
REMARK  176  A    between atoms: _407  and  _408
REMARK  177  A    between atoms: _411  and  _413
REMARK  178  A    between atoms: _413  and  _414
REMARK  179  A    between atoms: _413  and  _416
REMARK  180  A    between atoms: _416  and  _417
REMARK  181  A    between atoms: _417  and  _418
REMARK  182  A    between atoms: _418  and  _419
REMARK  183  A    between atoms: _419  and  _420
REMARK  184  A    between atoms: _424  and  _426
REMARK  185  A    between atoms: _426  and  _427
REMARK  186  A    between atoms: _426  and  _429
REMARK  187  A    between atoms: _429  and  _430
REMARK  188  A    between atoms: _435  and  _437
REMARK  189  A    between atoms: _437  and  _438
REMARK  190  A    between atoms: _441  and  _443
REMARK  191  A    between atoms: _443  and  _444
REMARK  192  A    between atoms: _443  and  _446
REMARK  193  A    between atoms: _446  and  _447
REMARK  194  A    between atoms: _457  and  _459
REMARK  195  A    between atoms: _459  and  _460
REMARK  196  A    between atoms: _459  and  _462
REMARK  197  A    between atoms: _462  and  _463
REMARK  198  A    between atoms: _463  and  _464
REMARK  199  A    between atoms: _467  and  _469
REMARK  200  A    between atoms: _469  and  _470
REMARK  201  A    between atoms: _469  and  _472
REMARK  202  A    between atoms: _472  and  _473
REMARK  203  A    between atoms: _475  and  _477
REMARK  204  A    between atoms: _477  and  _478
REMARK  205  A    between atoms: _477  and  _480
REMARK  206  A    between atoms: _480  and  _481
REMARK  207  A    between atoms: _487  and  _489
REMARK  208  A    between atoms: _489  and  _490
REMARK  209  A    between atoms: _489  and  _492
REMARK  210  A    between atoms: _492  and  _493
REMARK  211  A    between atoms: _496  and  _498
REMARK  212  A    between atoms: _498  and  _499
REMARK  213  A    between atoms: _498  and  _501
REMARK  214  A    between atoms: _504  and  _506
REMARK  215  A    between atoms: _506  and  _507
REMARK  216  A    between atoms: _509  and  _511
REMARK  217  A    between atoms: _511  and  _512
REMARK  218  A    between atoms: _511  and  _514
REMARK  219  A    between atoms: _514  and  _515
REMARK  220  A    between atoms: _518  and  _520
REMARK  221  A    between atoms: _520  and  _521
REMARK  222  A    between atoms: _520  and  _523
REMARK  223  A    between atoms: _523  and  _524
REMARK  224  A    between atoms: _524  and  _525
REMARK  225  A    between atoms: _525  and  _526
REMARK  226  A    between atoms: _526  and  _527
REMARK  227  A    between atoms: _531  and  _533
REMARK  228  A    between atoms: _533  and  _534
REMARK  229  A    between atoms: _533  and  _536
REMARK  230  A    between atoms: _539  and  _541
REMARK  231  A    between atoms: _541  and  _542
REMARK  232  A    between atoms: _541  and  _544
REMARK  233  A    between atoms: _544  and  _545
REMARK  234  A    between atoms: _550  and  _551
REMARK                            x       y       z     vdW  Elec       q    Type
REMARK                         _______ _______ _______ _____ _____    ______ ____
ROOT
ATOM      1  O   HOH     1      -4.068  14.502  22.964  0.00  0.00    +0.000 OA
ENDROOT
TORSDOF 0
REMARK  Name = ../refined-set-2016/4cwn/4cwn_pocket.pdb
REMARK  234 active torsions:
REMARK  status: ('A' for Active; 'I' for Inactive)
REMARK    1  A    between atoms: _1  and  _3
REMARK    2  A    between atoms: _3  and  _4
REMARK    3  A    between atoms: _3  and  _6
REMARK    4  A    between atoms: _6  and  _7
REMARK    5  A    between atoms: _13  and  _15
REMARK    6  A    between atoms: _15  and  _16
REMARK    7  A    between atoms: _15  and  _18
REMARK    8  A    between atoms: _18  and  _19
REMARK    9  A    between atoms: _22  and  _24
REMARK   10  A    between atoms: _24  and  _25
REMARK   11  A    between atoms: _24  and  _27
REMARK   12  A    between atoms: _27  and  _28
REMARK   13  A    between atoms: _31  and  _33
REMARK   14  A    between atoms: _33  and  _34
REMARK   15  A    between atoms: _33  and  _36
REMARK   16  A    between atoms: _36  and  _37
REMARK   17  A    between atoms: _37  and  _38
REMARK   18  A    between atoms: _41  and  _43
REMARK   19  A    between atoms: _43  and  _44
REMARK   20  A    between atoms: _43  and  _46
REMARK   21  A    between atoms: _46  and  _47
REMARK   22  A    between atoms: _50  and  _52
REMARK   23  A    between atoms: _52  and  _53
REMARK   24  A    between atoms: _52  and  _55
REMARK   25  A    between atoms: _55  and  _56
REMARK   26  A    between atoms: _59  and  _61
REMARK   27  A    between atoms: _61  and  _62
REMARK   28  A    between atoms: _61  and  _64
REMARK   29  A    between atoms: _64  and  _65
REMARK   30  A    between atoms: _67  and  _69
REMARK   31  A    between atoms: _69  and  _70
REMARK   32  A    between atoms: _69  and  _72
REMARK   33  A    between atoms: _72  and  _73
REMARK   34  A    between atoms: _78  and  _80
REMARK   35  A    between atoms: _80  and  _81
REMARK   36  A    between atoms: _80  and  _83
REMARK   37  A    between atoms: _83  and  _84
REMARK   38  A    between atoms: _86  and  _88
REMARK   39  A    between atoms: _88  and  _89
REMARK   40  A    between atoms: _88  and  _91
REMARK   41  A    between atoms: _91  and  _92
REMARK   42  A    between atoms: _94  and  _96
REMARK   43  A    between atoms: _96  and  _97
REMARK   44  A    between atoms: _96  and  _99
REMARK   45  A    between atoms: _99  and  _100
REMARK   46  A    between atoms: _103  and  _105
REMARK   47  A    between atoms: _105  and  _106
REMARK   48  A    between atoms: _109  and  _111
REMARK   49  A    between atoms: _111  and  _112
REMARK   50  A    between atoms: _111  and  _114
REMARK   51  A    between atoms: _114  and  _115
REMARK   52  A    between atoms: _118  and  _120
REMARK   53  A    between atoms: _120  and  _121
REMARK   54  A    between atoms: _120  and  _123
REMARK   55  A    between atoms: _123  and  _124
REMARK   56  A    between atoms: _124  and  _125
REMARK   57  A    between atoms: _125  and  _126
REMARK   58  A    between atoms: _126  and  _127
REMARK   59  A    between atoms: _131  and  _133
REMARK   60  A    between atoms: _133  and  _134
REMARK   61  A    between atoms: _133  and  _136
REMARK   62  A    between atoms: _136  and  _137
REMARK   63  A    between atoms: _140  and  _142
REMARK   64  A    between atoms: _142  and  _143
REMARK   65  A    between atoms: _142  and  _145
REMARK   66  A    between atoms: _145  and  _146
REMARK   67  A    between atoms: _149  and  _151
REMARK   68  A    between atoms: _151  and  _152
REMARK   69  A    between atoms: _151  and  _154
REMARK   70  A    between atoms: _157  and  _159
REMARK   71  A    between atoms: _159  and  _160
REMARK   72  A    between atoms: _159  and  _162
REMARK   73  A    between atoms: _162  and  _163
REMARK   74  A    between atoms: _166  and  _168
REMARK   75  A    between atoms: _168  and  _169
REMARK   76  A    between atoms: _168  and  _171
REMARK   77  A    between atoms: _171  and  _172
REMARK   78  A    between atoms: _175  and  _177
REMARK   79  A    between atoms: _177  and  _178
REMARK   80  A    between atoms: _180  and  _182
REMARK   81  A    between atoms: _182  and  _183
REMARK   82  A    between atoms: _182  and  _185
REMARK   83  A    between atoms: _185  and  _186
REMARK   84  A    between atoms: _189  and  _191
REMARK   85  A    between atoms: _191  and  _192
REMARK   86  A    between atoms: _194  and  _196
REMARK   87  A    between atoms: _196  and  _197
REMARK   88  A    between atoms: _196  and  _199
REMARK   89  A    between atoms: _199  and  _200
REMARK   90  A    between atoms: _200  and  _201
REMARK   91  A    between atoms: _203  and  _205
REMARK   92  A    between atoms: _205  and  _206
REMARK   93  A    between atoms: _205  and  _208
REMARK   94  A    between atoms: _208  and  _209
REMARK   95  A    between atoms: _212  and  _214
REMARK   96  A    between atoms: _214  and  _215
REMARK   97  A    between atoms: _214  and  _217
REMARK   98  A    between atoms: _217  and  _218
REMARK   99  A    between atoms: _221  and  _223
REMARK  100  A    between atoms: _223  and  _224
REMARK  101  A    between atoms: _223  and  _226
REMARK  102  A    between atoms: _226  and  _227
REMARK  103  A    between atoms: _230  and  _232
REMARK  104  A    between atoms: _232  and  _233
REMARK  105  A    between atoms: _232  and  _235
REMARK  106  A    between atoms: _235  and  _236
REMARK  107  A    between atoms: _239  and  _241
REMARK  108  A    between atoms: _241  and  _242
REMARK  109  A    between atoms: _241  and  _244
REMARK  110  A    between atoms: _244  and  _245
REMARK  111  A    between atoms: _250  and  _252
REMARK  112  A    between atoms: _252  and  _253
REMARK  113  A    between atoms: _252  and  _255
REMARK  114  A    between atoms: _255  and  _256
REMARK  115  A    between atoms: _259  and  _261
REMARK  116  A    between atoms: _261  and  _262
REMARK  117  A    between atoms: _264  and  _266
REMARK  118  A    between atoms: _266  and  _267
REMARK  119  A    between atoms: _266  and  _269
REMARK  120  A    between atoms: _269  and  _270
REMARK  121  A    between atoms: _273  and  _275
REMARK  122  A    between atoms: _275  and  _276
REMARK  123  A    between atoms: _275  and  _278
REMARK  124  A    between atoms: _278  and  _279
REMARK  125  A    between atoms: _282  and  _284
REMARK  126  A    between atoms: _284  and  _285
REMARK  127  A    between atoms: _288  and  _290
REMARK  128  A    between atoms: _290  and  _291
REMARK  129  A    between atoms: _290  and  _293
REMARK  130  A    between atoms: _293  and  _294
REMARK  131  A    between atoms: _294  and  _295
REMARK  132  A    between atoms: _295  and  _296
REMARK  133  A    between atoms: _296  and  _297
REMARK  134  A    between atoms: _301  and  _303
REMARK  135  A    between atoms: _303  and  _304
REMARK  136  A    between atoms: _303  and  _306
REMARK  137  A    between atoms: _306  and  _307
REMARK  138  A    between atoms: _310  and  _312
REMARK  139  A    between atoms: _312  and  _313
REMARK  140  A    between atoms: _315  and  _317
REMARK  141  A    between atoms: _317  and  _318
REMARK  142  A    between atoms: _317  and  _320
REMARK  143  A    between atoms: _323  and  _325
REMARK  144  A    between atoms: _325  and  _326
REMARK  145  A    between atoms: _328  and  _330
REMARK  146  A    between atoms: _330  and  _331
REMARK  147  A    between atoms: _330  and  _333
REMARK  148  A    between atoms: _333  and  _334
REMARK  149  A    between atoms: _340  and  _342
REMARK  150  A    between atoms: _342  and  _343
REMARK  151  A    between atoms: _342  and  _345
REMARK  152  A    between atoms: _345  and  _346
REMARK  153  A    between atoms: _351  and  _352
REMARK  154  A    between atoms: _354  and  _356
REMARK  155  A    between atoms: _356  and  _357
REMARK  156  A    between atoms: _356  and  _359
REMARK  157  A    between atoms: _359  and  _360
REMARK  158  A    between atoms: _365  and  _366
REMARK  159  A    between atoms: _368  and  _370
REMARK  160  A    between atoms: _370  and  _371
REMARK  161  A    between atoms: _370  and  _373
REMARK  162  A    between atoms: _376  and  _378
REMARK  163  A    between atoms: _378  and  _379
REMARK  164  A    between atoms: _378  and  _381
REMARK  165  A    between atoms: _381  and  _382
REMARK  166  A    between atoms: _385  and  _387
REMARK  167  A    between atoms: _387  and  _388
REMARK  168  A    between atoms: _387  and  _390
REMARK  169  A    between atoms: _393  and  _395
REMARK  170  A    between atoms: _395  and  _396
REMARK  171  A    between atoms: _395  and  _398
REMARK  172  A    between atoms: _398  and  _399
REMARK  173  A    between atoms: _402  and  _404
REMARK  174  A    between atoms: _404  and  _405
REMARK  175  A    between atoms: _404  and  _407
REMARK  176  A    between atoms: _407  and  _408
REMARK  177  A    between atoms: _411  and  _413
REMARK  178  A    between atoms: _413  and  _414
REMARK  179  A    between atoms: _413  and  _416
REMARK  180  A    between atoms: _416  and  _417
REMARK  181  A    between atoms: _417  and  _418
REMARK  182  A    between atoms: _418  and  _419
REMARK  183  A    between atoms: _419  and  _420
REMARK  184  A    between atoms: _424  and  _426
REMARK  185  A    between atoms: _426  and  _427
REMARK  186  A    between atoms: _426  and  _429
REMARK  187  A    between atoms: _429  and  _430
REMARK  188  A    between atoms: _435  and  _437
REMARK  189  A    between atoms: _437  and  _438
REMARK  190  A    between atoms: _441  and  _443
REMARK  191  A    between atoms: _443  and  _444
REMARK  192  A    between atoms: _443  and  _446
REMARK  193  A    between atoms: _446  and  _447
REMARK  194  A    between atoms: _457  and  _459
REMARK  195  A    between atoms: _459  and  _460
REMARK  196  A    between atoms: _459  and  _462
REMARK  197  A    between atoms: _462  and  _463
REMARK  198  A    between atoms: _463  and  _464
REMARK  199  A    between atoms: _467  and  _469
REMARK  200  A    between atoms: _469  and  _470
REMARK  201  A    between atoms: _469  and  _472
REMARK  202  A    between atoms: _472  and  _473
REMARK  203  A    between atoms: _475  and  _477
REMARK  204  A    between atoms: _477  and  _478
REMARK  205  A    between atoms: _477  and  _480
REMARK  206  A    between atoms: _480  and  _481
REMARK  207  A    between atoms: _487  and  _489
REMARK  208  A    between atoms: _489  and  _490
REMARK  209  A    between atoms: _489  and  _492
REMARK  210  A    between atoms: _492  and  _493
REMARK  211  A    between atoms: _496  and  _498
REMARK  212  A    between atoms: _498  and  _499
REMARK  213  A    between atoms: _498  and  _501
REMARK  214  A    between atoms: _504  and  _506
REMARK  215  A    between atoms: _506  and  _507
REMARK  216  A    between atoms: _509  and  _511
REMARK  217  A    between atoms: _511  and  _512
REMARK  218  A    between atoms: _511  and  _514
REMARK  219  A    between atoms: _514  and  _515
REMARK  220  A    between atoms: _518  and  _520
REMARK  221  A    between atoms: _520  and  _521
REMARK  222  A    between atoms: _520  and  _523
REMARK  223  A    between atoms: _523  and  _524
REMARK  224  A    between atoms: _524  and  _525
REMARK  225  A    between atoms: _525  and  _526
REMARK  226  A    between atoms: _526  and  _527
REMARK  227  A    between atoms: _531  and  _533
REMARK  228  A    between atoms: _533  and  _534
REMARK  229  A    between atoms: _533  and  _536
REMARK  230  A    between atoms: _539  and  _541
REMARK  231  A    between atoms: _541  and  _542
REMARK  232  A    between atoms: _541  and  _544
REMARK  233  A    between atoms: _544  and  _545
REMARK  234  A    between atoms: _550  and  _551
REMARK                            x       y       z     vdW  Elec       q    Type
REMARK                         _______ _______ _______ _____ _____    ______ ____
ROOT
ATOM      1  O   HOH     1       1.649   5.483  22.582  0.00  0.00    +0.000 OA
ENDROOT
TORSDOF 0
REMARK  Name = ../refined-set-2016/4cwn/4cwn_pocket.pdb
REMARK  234 active torsions:
REMARK  status: ('A' for Active; 'I' for Inactive)
REMARK    1  A    between atoms: _1  and  _3
REMARK    2  A    between atoms: _3  and  _4
REMARK    3  A    between atoms: _3  and  _6
REMARK    4  A    between atoms: _6  and  _7
REMARK    5  A    between atoms: _13  and  _15
REMARK    6  A    between atoms: _15  and  _16
REMARK    7  A    between atoms: _15  and  _18
REMARK    8  A    between atoms: _18  and  _19
REMARK    9  A    between atoms: _22  and  _24
REMARK   10  A    between atoms: _24  and  _25
REMARK   11  A    between atoms: _24  and  _27
REMARK   12  A    between atoms: _27  and  _28
REMARK   13  A    between atoms: _31  and  _33
REMARK   14  A    between atoms: _33  and  _34
REMARK   15  A    between atoms: _33  and  _36
REMARK   16  A    between atoms: _36  and  _37
REMARK   17  A    between atoms: _37  and  _38
REMARK   18  A    between atoms: _41  and  _43
REMARK   19  A    between atoms: _43  and  _44
REMARK   20  A    between atoms: _43  and  _46
REMARK   21  A    between atoms: _46  and  _47
REMARK   22  A    between atoms: _50  and  _52
REMARK   23  A    between atoms: _52  and  _53
REMARK   24  A    between atoms: _52  and  _55
REMARK   25  A    between atoms: _55  and  _56
REMARK   26  A    between atoms: _59  and  _61
REMARK   27  A    between atoms: _61  and  _62
REMARK   28  A    between atoms: _61  and  _64
REMARK   29  A    between atoms: _64  and  _65
REMARK   30  A    between atoms: _67  and  _69
REMARK   31  A    between atoms: _69  and  _70
REMARK   32  A    between atoms: _69  and  _72
REMARK   33  A    between atoms: _72  and  _73
REMARK   34  A    between atoms: _78  and  _80
REMARK   35  A    between atoms: _80  and  _81
REMARK   36  A    between atoms: _80  and  _83
REMARK   37  A    between atoms: _83  and  _84
REMARK   38  A    between atoms: _86  and  _88
REMARK   39  A    between atoms: _88  and  _89
REMARK   40  A    between atoms: _88  and  _91
REMARK   41  A    between atoms: _91  and  _92
REMARK   42  A    between atoms: _94  and  _96
REMARK   43  A    between atoms: _96  and  _97
REMARK   44  A    between atoms: _96  and  _99
REMARK   45  A    between atoms: _99  and  _100
REMARK   46  A    between atoms: _103  and  _105
REMARK   47  A    between atoms: _105  and  _106
REMARK   48  A    between atoms: _109  and  _111
REMARK   49  A    between atoms: _111  and  _112
REMARK   50  A    between atoms: _111  and  _114
REMARK   51  A    between atoms: _114  and  _115
REMARK   52  A    between atoms: _118  and  _120
REMARK   53  A    between atoms: _120  and  _121
REMARK   54  A    between atoms: _120  and  _123
REMARK   55  A    between atoms: _123  and  _124
REMARK   56  A    between atoms: _124  and  _125
REMARK   57  A    between atoms: _125  and  _126
REMARK   58  A    between atoms: _126  and  _127
REMARK   59  A    between atoms: _131  and  _133
REMARK   60  A    between atoms: _133  and  _134
REMARK   61  A    between atoms: _133  and  _136
REMARK   62  A    between atoms: _136  and  _137
REMARK   63  A    between atoms: _140  and  _142
REMARK   64  A    between atoms: _142  and  _143
REMARK   65  A    between atoms: _142  and  _145
REMARK   66  A    between atoms: _145  and  _146
REMARK   67  A    between atoms: _149  and  _151
REMARK   68  A    between atoms: _151  and  _152
REMARK   69  A    between atoms: _151  and  _154
REMARK   70  A    between atoms: _157  and  _159
REMARK   71  A    between atoms: _159  and  _160
REMARK   72  A    between atoms: _159  and  _162
REMARK   73  A    between atoms: _162  and  _163
REMARK   74  A    between atoms: _166  and  _168
REMARK   75  A    between atoms: _168  and  _169
REMARK   76  A    between atoms: _168  and  _171
REMARK   77  A    between atoms: _171  and  _172
REMARK   78  A    between atoms: _175  and  _177
REMARK   79  A    between atoms: _177  and  _178
REMARK   80  A    between atoms: _180  and  _182
REMARK   81  A    between atoms: _182  and  _183
REMARK   82  A    between atoms: _182  and  _185
REMARK   83  A    between atoms: _185  and  _186
REMARK   84  A    between atoms: _189  and  _191
REMARK   85  A    between atoms: _191  and  _192
REMARK   86  A    between atoms: _194  and  _196
REMARK   87  A    between atoms: _196  and  _197
REMARK   88  A    between atoms: _196  and  _199
REMARK   89  A    between atoms: _199  and  _200
REMARK   90  A    between atoms: _200  and  _201
REMARK   91  A    between atoms: _203  and  _205
REMARK   92  A    between atoms: _205  and  _206
REMARK   93  A    between atoms: _205  and  _208
REMARK   94  A    between atoms: _208  and  _209
REMARK   95  A    between atoms: _212  and  _214
REMARK   96  A    between atoms: _214  and  _215
REMARK   97  A    between atoms: _214  and  _217
REMARK   98  A    between atoms: _217  and  _218
REMARK   99  A    between atoms: _221  and  _223
REMARK  100  A    between atoms: _223  and  _224
REMARK  101  A    between atoms: _223  and  _226
REMARK  102  A    between atoms: _226  and  _227
REMARK  103  A    between atoms: _230  and  _232
REMARK  104  A    between atoms: _232  and  _233
REMARK  105  A    between atoms: _232  and  _235
REMARK  106  A    between atoms: _235  and  _236
REMARK  107  A    between atoms: _239  and  _241
REMARK  108  A    between atoms: _241  and  _242
REMARK  109  A    between atoms: _241  and  _244
REMARK  110  A    between atoms: _244  and  _245
REMARK  111  A    between atoms: _250  and  _252
REMARK  112  A    between atoms: _252  and  _253
REMARK  113  A    between atoms: _252  and  _255
REMARK  114  A    between atoms: _255  and  _256
REMARK  115  A    between atoms: _259  and  _261
REMARK  116  A    between atoms: _261  and  _262
REMARK  117  A    between atoms: _264  and  _266
REMARK  118  A    between atoms: _266  and  _267
REMARK  119  A    between atoms: _266  and  _269
REMARK  120  A    between atoms: _269  and  _270
REMARK  121  A    between atoms: _273  and  _275
REMARK  122  A    between atoms: _275  and  _276
REMARK  123  A    between atoms: _275  and  _278
REMARK  124  A    between atoms: _278  and  _279
REMARK  125  A    between atoms: _282  and  _284
REMARK  126  A    between atoms: _284  and  _285
REMARK  127  A    between atoms: _288  and  _290
REMARK  128  A    between atoms: _290  and  _291
REMARK  129  A    between atoms: _290  and  _293
REMARK  130  A    between atoms: _293  and  _294
REMARK  131  A    between atoms: _294  and  _295
REMARK  132  A    between atoms: _295  and  _296
REMARK  133  A    between atoms: _296  and  _297
REMARK  134  A    between atoms: _301  and  _303
REMARK  135  A    between atoms: _303  and  _304
REMARK  136  A    between atoms: _303  and  _306
REMARK  137  A    between atoms: _306  and  _307
REMARK  138  A    between atoms: _310  and  _312
REMARK  139  A    between atoms: _312  and  _313
REMARK  140  A    between atoms: _315  and  _317
REMARK  141  A    between atoms: _317  and  _318
REMARK  142  A    between atoms: _317  and  _320
REMARK  143  A    between atoms: _323  and  _325
REMARK  144  A    between atoms: _325  and  _326
REMARK  145  A    between atoms: _328  and  _330
REMARK  146  A    between atoms: _330  and  _331
REMARK  147  A    between atoms: _330  and  _333
REMARK  148  A    between atoms: _333  and  _334
REMARK  149  A    between atoms: _340  and  _342
REMARK  150  A    between atoms: _342  and  _343
REMARK  151  A    between atoms: _342  and  _345
REMARK  152  A    between atoms: _345  and  _346
REMARK  153  A    between atoms: _351  and  _352
REMARK  154  A    between atoms: _354  and  _356
REMARK  155  A    between atoms: _356  and  _357
REMARK  156  A    between atoms: _356  and  _359
REMARK  157  A    between atoms: _359  and  _360
REMARK  158  A    between atoms: _365  and  _366
REMARK  159  A    between atoms: _368  and  _370
REMARK  160  A    between atoms: _370  and  _371
REMARK  161  A    between atoms: _370  and  _373
REMARK  162  A    between atoms: _376  and  _378
REMARK  163  A    between atoms: _378  and  _379
REMARK  164  A    between atoms: _378  and  _381
REMARK  165  A    between atoms: _381  and  _382
REMARK  166  A    between atoms: _385  and  _387
REMARK  167  A    between atoms: _387  and  _388
REMARK  168  A    between atoms: _387  and  _390
REMARK  169  A    between atoms: _393  and  _395
REMARK  170  A    between atoms: _395  and  _396
REMARK  171  A    between atoms: _395  and  _398
REMARK  172  A    between atoms: _398  and  _399
REMARK  173  A    between atoms: _402  and  _404
REMARK  174  A    between atoms: _404  and  _405
REMARK  175  A    between atoms: _404  and  _407
REMARK  176  A    between atoms: _407  and  _408
REMARK  177  A    between atoms: _411  and  _413
REMARK  178  A    between atoms: _413  and  _414
REMARK  179  A    between atoms: _413  and  _416
REMARK  180  A    between atoms: _416  and  _417
REMARK  181  A    between atoms: _417  and  _418
REMARK  182  A    between atoms: _418  and  _419
REMARK  183  A    between atoms: _419  and  _420
REMARK  184  A    between atoms: _424  and  _426
REMARK  185  A    between atoms: _426  and  _427
REMARK  186  A    between atoms: _426  and  _429
REMARK  187  A    between atoms: _429  and  _430
REMARK  188  A    between atoms: _435  and  _437
REMARK  189  A    between atoms: _437  and  _438
REMARK  190  A    between atoms: _441  and  _443
REMARK  191  A    between atoms: _443  and  _444
REMARK  192  A    between atoms: _443  and  _446
REMARK  193  A    between atoms: _446  and  _447
REMARK  194  A    between atoms: _457  and  _459
REMARK  195  A    between atoms: _459  and  _460
REMARK  196  A    between atoms: _459  and  _462
REMARK  197  A    between atoms: _462  and  _463
REMARK  198  A    between atoms: _463  and  _464
REMARK  199  A    between atoms: _467  and  _469
REMARK  200  A    between atoms: _469  and  _470
REMARK  201  A    between atoms: _469  and  _472
REMARK  202  A    between atoms: _472  and  _473
REMARK  203  A    between atoms: _475  and  _477
REMARK  204  A    between atoms: _477  and  _478
REMARK  205  A    between atoms: _477  and  _480
REMARK  206  A    between atoms: _480  and  _481
REMARK  207  A    between atoms: _487  and  _489
REMARK  208  A    between atoms: _489  and  _490
REMARK  209  A    between atoms: _489  and  _492
REMARK  210  A    between atoms: _492  and  _493
REMARK  211  A    between atoms: _496  and  _498
REMARK  212  A    between atoms: _498  and  _499
REMARK  213  A    between atoms: _498  and  _501
REMARK  214  A    between atoms: _504  and  _506
REMARK  215  A    between atoms: _506  and  _507
REMARK  216  A    between atoms: _509  and  _511
REMARK  217  A    between atoms: _511  and  _512
REMARK  218  A    between atoms: _511  and  _514
REMARK  219  A    between atoms: _514  and  _515
REMARK  220  A    between atoms: _518  and  _520
REMARK  221  A    between atoms: _520  and  _521
REMARK  222  A    between atoms: _520  and  _523
REMARK  223  A    between atoms: _523  and  _524
REMARK  224  A    between atoms: _524  and  _525
REMARK  225  A    between atoms: _525  and  _526
REMARK  226  A    between atoms: _526  and  _527
REMARK  227  A    between atoms: _531  and  _533
REMARK  228  A    between atoms: _533  and  _534
REMARK  229  A    between atoms: _533  and  _536
REMARK  230  A    between atoms: _539  and  _541
REMARK  231  A    between atoms: _541  and  _542
REMARK  232  A    between atoms: _541  and  _544
REMARK  233  A    between atoms: _544  and  _545
REMARK  234  A    between atoms: _550  and  _551
REMARK                            x       y       z     vdW  Elec       q    Type
REMARK                         _______ _______ _______ _____ _____    ______ ____
ROOT
ATOM      1  O   HOH     1      -0.263   5.955  26.340  0.00  0.00    +0.000 OA
ENDROOT
TORSDOF 0
REMARK  Name = ../refined-set-2016/4cwn/4cwn_pocket.pdb
REMARK  234 active torsions:
REMARK  status: ('A' for Active; 'I' for Inactive)
REMARK    1  A    between atoms: _1  and  _3
REMARK    2  A    between atoms: _3  and  _4
REMARK    3  A    between atoms: _3  and  _6
REMARK    4  A    between atoms: _6  and  _7
REMARK    5  A    between atoms: _13  and  _15
REMARK    6  A    between atoms: _15  and  _16
REMARK    7  A    between atoms: _15  and  _18
REMARK    8  A    between atoms: _18  and  _19
REMARK    9  A    between atoms: _22  and  _24
REMARK   10  A    between atoms: _24  and  _25
REMARK   11  A    between atoms: _24  and  _27
REMARK   12  A    between atoms: _27  and  _28
REMARK   13  A    between atoms: _31  and  _33
REMARK   14  A    between atoms: _33  and  _34
REMARK   15  A    between atoms: _33  and  _36
REMARK   16  A    between atoms: _36  and  _37
REMARK   17  A    between atoms: _37  and  _38
REMARK   18  A    between atoms: _41  and  _43
REMARK   19  A    between atoms: _43  and  _44
REMARK   20  A    between atoms: _43  and  _46
REMARK   21  A    between atoms: _46  and  _47
REMARK   22  A    between atoms: _50  and  _52
REMARK   23  A    between atoms: _52  and  _53
REMARK   24  A    between atoms: _52  and  _55
REMARK   25  A    between atoms: _55  and  _56
REMARK   26  A    between atoms: _59  and  _61
REMARK   27  A    between atoms: _61  and  _62
REMARK   28  A    between atoms: _61  and  _64
REMARK   29  A    between atoms: _64  and  _65
REMARK   30  A    between atoms: _67  and  _69
REMARK   31  A    between atoms: _69  and  _70
REMARK   32  A    between atoms: _69  and  _72
REMARK   33  A    between atoms: _72  and  _73
REMARK   34  A    between atoms: _78  and  _80
REMARK   35  A    between atoms: _80  and  _81
REMARK   36  A    between atoms: _80  and  _83
REMARK   37  A    between atoms: _83  and  _84
REMARK   38  A    between atoms: _86  and  _88
REMARK   39  A    between atoms: _88  and  _89
REMARK   40  A    between atoms: _88  and  _91
REMARK   41  A    between atoms: _91  and  _92
REMARK   42  A    between atoms: _94  and  _96
REMARK   43  A    between atoms: _96  and  _97
REMARK   44  A    between atoms: _96  and  _99
REMARK   45  A    between atoms: _99  and  _100
REMARK   46  A    between atoms: _103  and  _105
REMARK   47  A    between atoms: _105  and  _106
REMARK   48  A    between atoms: _109  and  _111
REMARK   49  A    between atoms: _111  and  _112
REMARK   50  A    between atoms: _111  and  _114
REMARK   51  A    between atoms: _114  and  _115
REMARK   52  A    between atoms: _118  and  _120
REMARK   53  A    between atoms: _120  and  _121
REMARK   54  A    between atoms: _120  and  _123
REMARK   55  A    between atoms: _123  and  _124
REMARK   56  A    between atoms: _124  and  _125
REMARK   57  A    between atoms: _125  and  _126
REMARK   58  A    between atoms: _126  and  _127
REMARK   59  A    between atoms: _131  and  _133
REMARK   60  A    between atoms: _133  and  _134
REMARK   61  A    between atoms: _133  and  _136
REMARK   62  A    between atoms: _136  and  _137
REMARK   63  A    between atoms: _140  and  _142
REMARK   64  A    between atoms: _142  and  _143
REMARK   65  A    between atoms: _142  and  _145
REMARK   66  A    between atoms: _145  and  _146
REMARK   67  A    between atoms: _149  and  _151
REMARK   68  A    between atoms: _151  and  _152
REMARK   69  A    between atoms: _151  and  _154
REMARK   70  A    between atoms: _157  and  _159
REMARK   71  A    between atoms: _159  and  _160
REMARK   72  A    between atoms: _159  and  _162
REMARK   73  A    between atoms: _162  and  _163
REMARK   74  A    between atoms: _166  and  _168
REMARK   75  A    between atoms: _168  and  _169
REMARK   76  A    between atoms: _168  and  _171
REMARK   77  A    between atoms: _171  and  _172
REMARK   78  A    between atoms: _175  and  _177
REMARK   79  A    between atoms: _177  and  _178
REMARK   80  A    between atoms: _180  and  _182
REMARK   81  A    between atoms: _182  and  _183
REMARK   82  A    between atoms: _182  and  _185
REMARK   83  A    between atoms: _185  and  _186
REMARK   84  A    between atoms: _189  and  _191
REMARK   85  A    between atoms: _191  and  _192
REMARK   86  A    between atoms: _194  and  _196
REMARK   87  A    between atoms: _196  and  _197
REMARK   88  A    between atoms: _196  and  _199
REMARK   89  A    between atoms: _199  and  _200
REMARK   90  A    between atoms: _200  and  _201
REMARK   91  A    between atoms: _203  and  _205
REMARK   92  A    between atoms: _205  and  _206
REMARK   93  A    between atoms: _205  and  _208
REMARK   94  A    between atoms: _208  and  _209
REMARK   95  A    between atoms: _212  and  _214
REMARK   96  A    between atoms: _214  and  _215
REMARK   97  A    between atoms: _214  and  _217
REMARK   98  A    between atoms: _217  and  _218
REMARK   99  A    between atoms: _221  and  _223
REMARK  100  A    between atoms: _223  and  _224
REMARK  101  A    between atoms: _223  and  _226
REMARK  102  A    between atoms: _226  and  _227
REMARK  103  A    between atoms: _230  and  _232
REMARK  104  A    between atoms: _232  and  _233
REMARK  105  A    between atoms: _232  and  _235
REMARK  106  A    between atoms: _235  and  _236
REMARK  107  A    between atoms: _239  and  _241
REMARK  108  A    between atoms: _241  and  _242
REMARK  109  A    between atoms: _241  and  _244
REMARK  110  A    between atoms: _244  and  _245
REMARK  111  A    between atoms: _250  and  _252
REMARK  112  A    between atoms: _252  and  _253
REMARK  113  A    between atoms: _252  and  _255
REMARK  114  A    between atoms: _255  and  _256
REMARK  115  A    between atoms: _259  and  _261
REMARK  116  A    between atoms: _261  and  _262
REMARK  117  A    between atoms: _264  and  _266
REMARK  118  A    between atoms: _266  and  _267
REMARK  119  A    between atoms: _266  and  _269
REMARK  120  A    between atoms: _269  and  _270
REMARK  121  A    between atoms: _273  and  _275
REMARK  122  A    between atoms: _275  and  _276
REMARK  123  A    between atoms: _275  and  _278
REMARK  124  A    between atoms: _278  and  _279
REMARK  125  A    between atoms: _282  and  _284
REMARK  126  A    between atoms: _284  and  _285
REMARK  127  A    between atoms: _288  and  _290
REMARK  128  A    between atoms: _290  and  _291
REMARK  129  A    between atoms: _290  and  _293
REMARK  130  A    between atoms: _293  and  _294
REMARK  131  A    between atoms: _294  and  _295
REMARK  132  A    between atoms: _295  and  _296
REMARK  133  A    between atoms: _296  and  _297
REMARK  134  A    between atoms: _301  and  _303
REMARK  135  A    between atoms: _303  and  _304
REMARK  136  A    between atoms: _303  and  _306
REMARK  137  A    between atoms: _306  and  _307
REMARK  138  A    between atoms: _310  and  _312
REMARK  139  A    between atoms: _312  and  _313
REMARK  140  A    between atoms: _315  and  _317
REMARK  141  A    between atoms: _317  and  _318
REMARK  142  A    between atoms: _317  and  _320
REMARK  143  A    between atoms: _323  and  _325
REMARK  144  A    between atoms: _325  and  _326
REMARK  145  A    between atoms: _328  and  _330
REMARK  146  A    between atoms: _330  and  _331
REMARK  147  A    between atoms: _330  and  _333
REMARK  148  A    between atoms: _333  and  _334
REMARK  149  A    between atoms: _340  and  _342
REMARK  150  A    between atoms: _342  and  _343
REMARK  151  A    between atoms: _342  and  _345
REMARK  152  A    between atoms: _345  and  _346
REMARK  153  A    between atoms: _351  and  _352
REMARK  154  A    between atoms: _354  and  _356
REMARK  155  A    between atoms: _356  and  _357
REMARK  156  A    between atoms: _356  and  _359
REMARK  157  A    between atoms: _359  and  _360
REMARK  158  A    between atoms: _365  and  _366
REMARK  159  A    between atoms: _368  and  _370
REMARK  160  A    between atoms: _370  and  _371
REMARK  161  A    between atoms: _370  and  _373
REMARK  162  A    between atoms: _376  and  _378
REMARK  163  A    between atoms: _378  and  _379
REMARK  164  A    between atoms: _378  and  _381
REMARK  165  A    between atoms: _381  and  _382
REMARK  166  A    between atoms: _385  and  _387
REMARK  167  A    between atoms: _387  and  _388
REMARK  168  A    between atoms: _387  and  _390
REMARK  169  A    between atoms: _393  and  _395
REMARK  170  A    between atoms: _395  and  _396
REMARK  171  A    between atoms: _395  and  _398
REMARK  172  A    between atoms: _398  and  _399
REMARK  173  A    between atoms: _402  and  _404
REMARK  174  A    between atoms: _404  and  _405
REMARK  175  A    between atoms: _404  and  _407
REMARK  176  A    between atoms: _407  and  _408
REMARK  177  A    between atoms: _411  and  _413
REMARK  178  A    between atoms: _413  and  _414
REMARK  179  A    between atoms: _413  and  _416
REMARK  180  A    between atoms: _416  and  _417
REMARK  181  A    between atoms: _417  and  _418
REMARK  182  A    between atoms: _418  and  _419
REMARK  183  A    between atoms: _419  and  _420
REMARK  184  A    between atoms: _424  and  _426
REMARK  185  A    between atoms: _426  and  _427
REMARK  186  A    between atoms: _426  and  _429
REMARK  187  A    between atoms: _429  and  _430
REMARK  188  A    between atoms: _435  and  _437
REMARK  189  A    between atoms: _437  and  _438
REMARK  190  A    between atoms: _441  and  _443
REMARK  191  A    between atoms: _443  and  _444
REMARK  192  A    between atoms: _443  and  _446
REMARK  193  A    between atoms: _446  and  _447
REMARK  194  A    between atoms: _457  and  _459
REMARK  195  A    between atoms: _459  and  _460
REMARK  196  A    between atoms: _459  and  _462
REMARK  197  A    between atoms: _462  and  _463
REMARK  198  A    between atoms: _463  and  _464
REMARK  199  A    between atoms: _467  and  _469
REMARK  200  A    between atoms: _469  and  _470
REMARK  201  A    between atoms: _469  and  _472
REMARK  202  A    between atoms: _472  and  _473
REMARK  203  A    between atoms: _475  and  _477
REMARK  204  A    between atoms: _477  and  _478
REMARK  205  A    between atoms: _477  and  _480
REMARK  206  A    between atoms: _480  and  _481
REMARK  207  A    between atoms: _487  and  _489
REMARK  208  A    between atoms: _489  and  _490
REMARK  209  A    between atoms: _489  and  _492
REMARK  210  A    between atoms: _492  and  _493
REMARK  211  A    between atoms: _496  and  _498
REMARK  212  A    between atoms: _498  and  _499
REMARK  213  A    between atoms: _498  and  _501
REMARK  214  A    between atoms: _504  and  _506
REMARK  215  A    between atoms: _506  and  _507
REMARK  216  A    between atoms: _509  and  _511
REMARK  217  A    between atoms: _511  and  _512
REMARK  218  A    between atoms: _511  and  _514
REMARK  219  A    between atoms: _514  and  _515
REMARK  220  A    between atoms: _518  and  _520
REMARK  221  A    between atoms: _520  and  _521
REMARK  222  A    between atoms: _520  and  _523
REMARK  223  A    between atoms: _523  and  _524
REMARK  224  A    between atoms: _524  and  _525
REMARK  225  A    between atoms: _525  and  _526
REMARK  226  A    between atoms: _526  and  _527
REMARK  227  A    between atoms: _531  and  _533
REMARK  228  A    between atoms: _533  and  _534
REMARK  229  A    between atoms: _533  and  _536
REMARK  230  A    between atoms: _539  and  _541
REMARK  231  A    between atoms: _541  and  _542
REMARK  232  A    between atoms: _541  and  _544
REMARK  233  A    between atoms: _544  and  _545
REMARK  234  A    between atoms: _550  and  _551
REMARK                            x       y       z     vdW  Elec       q    Type
REMARK                         _______ _______ _______ _____ _____    ______ ____
ROOT
ATOM      1  O   HOH     1       2.693   4.123  29.180  0.00  0.00    +0.000 OA
ENDROOT
TORSDOF 0
REMARK  Name = ../refined-set-2016/4cwn/4cwn_pocket.pdb
REMARK  234 active torsions:
REMARK  status: ('A' for Active; 'I' for Inactive)
REMARK    1  A    between atoms: _1  and  _3
REMARK    2  A    between atoms: _3  and  _4
REMARK    3  A    between atoms: _3  and  _6
REMARK    4  A    between atoms: _6  and  _7
REMARK    5  A    between atoms: _13  and  _15
REMARK    6  A    between atoms: _15  and  _16
REMARK    7  A    between atoms: _15  and  _18
REMARK    8  A    between atoms: _18  and  _19
REMARK    9  A    between atoms: _22  and  _24
REMARK   10  A    between atoms: _24  and  _25
REMARK   11  A    between atoms: _24  and  _27
REMARK   12  A    between atoms: _27  and  _28
REMARK   13  A    between atoms: _31  and  _33
REMARK   14  A    between atoms: _33  and  _34
REMARK   15  A    between atoms: _33  and  _36
REMARK   16  A    between atoms: _36  and  _37
REMARK   17  A    between atoms: _37  and  _38
REMARK   18  A    between atoms: _41  and  _43
REMARK   19  A    between atoms: _43  and  _44
REMARK   20  A    between atoms: _43  and  _46
REMARK   21  A    between atoms: _46  and  _47
REMARK   22  A    between atoms: _50  and  _52
REMARK   23  A    between atoms: _52  and  _53
REMARK   24  A    between atoms: _52  and  _55
REMARK   25  A    between atoms: _55  and  _56
REMARK   26  A    between atoms: _59  and  _61
REMARK   27  A    between atoms: _61  and  _62
REMARK   28  A    between atoms: _61  and  _64
REMARK   29  A    between atoms: _64  and  _65
REMARK   30  A    between atoms: _67  and  _69
REMARK   31  A    between atoms: _69  and  _70
REMARK   32  A    between atoms: _69  and  _72
REMARK   33  A    between atoms: _72  and  _73
REMARK   34  A    between atoms: _78  and  _80
REMARK   35  A    between atoms: _80  and  _81
REMARK   36  A    between atoms: _80  and  _83
REMARK   37  A    between atoms: _83  and  _84
REMARK   38  A    between atoms: _86  and  _88
REMARK   39  A    between atoms: _88  and  _89
REMARK   40  A    between atoms: _88  and  _91
REMARK   41  A    between atoms: _91  and  _92
REMARK   42  A    between atoms: _94  and  _96
REMARK   43  A    between atoms: _96  and  _97
REMARK   44  A    between atoms: _96  and  _99
REMARK   45  A    between atoms: _99  and  _100
REMARK   46  A    between atoms: _103  and  _105
REMARK   47  A    between atoms: _105  and  _106
REMARK   48  A    between atoms: _109  and  _111
REMARK   49  A    between atoms: _111  and  _112
REMARK   50  A    between atoms: _111  and  _114
REMARK   51  A    between atoms: _114  and  _115
REMARK   52  A    between atoms: _118  and  _120
REMARK   53  A    between atoms: _120  and  _121
REMARK   54  A    between atoms: _120  and  _123
REMARK   55  A    between atoms: _123  and  _124
REMARK   56  A    between atoms: _124  and  _125
REMARK   57  A    between atoms: _125  and  _126
REMARK   58  A    between atoms: _126  and  _127
REMARK   59  A    between atoms: _131  and  _133
REMARK   60  A    between atoms: _133  and  _134
REMARK   61  A    between atoms: _133  and  _136
REMARK   62  A    between atoms: _136  and  _137
REMARK   63  A    between atoms: _140  and  _142
REMARK   64  A    between atoms: _142  and  _143
REMARK   65  A    between atoms: _142  and  _145
REMARK   66  A    between atoms: _145  and  _146
REMARK   67  A    between atoms: _149  and  _151
REMARK   68  A    between atoms: _151  and  _152
REMARK   69  A    between atoms: _151  and  _154
REMARK   70  A    between atoms: _157  and  _159
REMARK   71  A    between atoms: _159  and  _160
REMARK   72  A    between atoms: _159  and  _162
REMARK   73  A    between atoms: _162  and  _163
REMARK   74  A    between atoms: _166  and  _168
REMARK   75  A    between atoms: _168  and  _169
REMARK   76  A    between atoms: _168  and  _171
REMARK   77  A    between atoms: _171  and  _172
REMARK   78  A    between atoms: _175  and  _177
REMARK   79  A    between atoms: _177  and  _178
REMARK   80  A    between atoms: _180  and  _182
REMARK   81  A    between atoms: _182  and  _183
REMARK   82  A    between atoms: _182  and  _185
REMARK   83  A    between atoms: _185  and  _186
REMARK   84  A    between atoms: _189  and  _191
REMARK   85  A    between atoms: _191  and  _192
REMARK   86  A    between atoms: _194  and  _196
REMARK   87  A    between atoms: _196  and  _197
REMARK   88  A    between atoms: _196  and  _199
REMARK   89  A    between atoms: _199  and  _200
REMARK   90  A    between atoms: _200  and  _201
REMARK   91  A    between atoms: _203  and  _205
REMARK   92  A    between atoms: _205  and  _206
REMARK   93  A    between atoms: _205  and  _208
REMARK   94  A    between atoms: _208  and  _209
REMARK   95  A    between atoms: _212  and  _214
REMARK   96  A    between atoms: _214  and  _215
REMARK   97  A    between atoms: _214  and  _217
REMARK   98  A    between atoms: _217  and  _218
REMARK   99  A    between atoms: _221  and  _223
REMARK  100  A    between atoms: _223  and  _224
REMARK  101  A    between atoms: _223  and  _226
REMARK  102  A    between atoms: _226  and  _227
REMARK  103  A    between atoms: _230  and  _232
REMARK  104  A    between atoms: _232  and  _233
REMARK  105  A    between atoms: _232  and  _235
REMARK  106  A    between atoms: _235  and  _236
REMARK  107  A    between atoms: _239  and  _241
REMARK  108  A    between atoms: _241  and  _242
REMARK  109  A    between atoms: _241  and  _244
REMARK  110  A    between atoms: _244  and  _245
REMARK  111  A    between atoms: _250  and  _252
REMARK  112  A    between atoms: _252  and  _253
REMARK  113  A    between atoms: _252  and  _255
REMARK  114  A    between atoms: _255  and  _256
REMARK  115  A    between atoms: _259  and  _261
REMARK  116  A    between atoms: _261  and  _262
REMARK  117  A    between atoms: _264  and  _266
REMARK  118  A    between atoms: _266  and  _267
REMARK  119  A    between atoms: _266  and  _269
REMARK  120  A    between atoms: _269  and  _270
REMARK  121  A    between atoms: _273  and  _275
REMARK  122  A    between atoms: _275  and  _276
REMARK  123  A    between atoms: _275  and  _278
REMARK  124  A    between atoms: _278  and  _279
REMARK  125  A    between atoms: _282  and  _284
REMARK  126  A    between atoms: _284  and  _285
REMARK  127  A    between atoms: _288  and  _290
REMARK  128  A    between atoms: _290  and  _291
REMARK  129  A    between atoms: _290  and  _293
REMARK  130  A    between atoms: _293  and  _294
REMARK  131  A    between atoms: _294  and  _295
REMARK  132  A    between atoms: _295  and  _296
REMARK  133  A    between atoms: _296  and  _297
REMARK  134  A    between atoms: _301  and  _303
REMARK  135  A    between atoms: _303  and  _304
REMARK  136  A    between atoms: _303  and  _306
REMARK  137  A    between atoms: _306  and  _307
REMARK  138  A    between atoms: _310  and  _312
REMARK  139  A    between atoms: _312  and  _313
REMARK  140  A    between atoms: _315  and  _317
REMARK  141  A    between atoms: _317  and  _318
REMARK  142  A    between atoms: _317  and  _320
REMARK  143  A    between atoms: _323  and  _325
REMARK  144  A    between atoms: _325  and  _326
REMARK  145  A    between atoms: _328  and  _330
REMARK  146  A    between atoms: _330  and  _331
REMARK  147  A    between atoms: _330  and  _333
REMARK  148  A    between atoms: _333  and  _334
REMARK  149  A    between atoms: _340  and  _342
REMARK  150  A    between atoms: _342  and  _343
REMARK  151  A    between atoms: _342  and  _345
REMARK  152  A    between atoms: _345  and  _346
REMARK  153  A    between atoms: _351  and  _352
REMARK  154  A    between atoms: _354  and  _356
REMARK  155  A    between atoms: _356  and  _357
REMARK  156  A    between atoms: _356  and  _359
REMARK  157  A    between atoms: _359  and  _360
REMARK  158  A    between atoms: _365  and  _366
REMARK  159  A    between atoms: _368  and  _370
REMARK  160  A    between atoms: _370  and  _371
REMARK  161  A    between atoms: _370  and  _373
REMARK  162  A    between atoms: _376  and  _378
REMARK  163  A    between atoms: _378  and  _379
REMARK  164  A    between atoms: _378  and  _381
REMARK  165  A    between atoms: _381  and  _382
REMARK  166  A    between atoms: _385  and  _387
REMARK  167  A    between atoms: _387  and  _388
REMARK  168  A    between atoms: _387  and  _390
REMARK  169  A    between atoms: _393  and  _395
REMARK  170  A    between atoms: _395  and  _396
REMARK  171  A    between atoms: _395  and  _398
REMARK  172  A    between atoms: _398  and  _399
REMARK  173  A    between atoms: _402  and  _404
REMARK  174  A    between atoms: _404  and  _405
REMARK  175  A    between atoms: _404  and  _407
REMARK  176  A    between atoms: _407  and  _408
REMARK  177  A    between atoms: _411  and  _413
REMARK  178  A    between atoms: _413  and  _414
REMARK  179  A    between atoms: _413  and  _416
REMARK  180  A    between atoms: _416  and  _417
REMARK  181  A    between atoms: _417  and  _418
REMARK  182  A    between atoms: _418  and  _419
REMARK  183  A    between atoms: _419  and  _420
REMARK  184  A    between atoms: _424  and  _426
REMARK  185  A    between atoms: _426  and  _427
REMARK  186  A    between atoms: _426  and  _429
REMARK  187  A    between atoms: _429  and  _430
REMARK  188  A    between atoms: _435  and  _437
REMARK  189  A    between atoms: _437  and  _438
REMARK  190  A    between atoms: _441  and  _443
REMARK  191  A    between atoms: _443  and  _444
REMARK  192  A    between atoms: _443  and  _446
REMARK  193  A    between atoms: _446  and  _447
REMARK  194  A    between atoms: _457  and  _459
REMARK  195  A    between atoms: _459  and  _460
REMARK  196  A    between atoms: _459  and  _462
REMARK  197  A    between atoms: _462  and  _463
REMARK  198  A    between atoms: _463  and  _464
REMARK  199  A    between atoms: _467  and  _469
REMARK  200  A    between atoms: _469  and  _470
REMARK  201  A    between atoms: _469  and  _472
REMARK  202  A    between atoms: _472  and  _473
REMARK  203  A    between atoms: _475  and  _477
REMARK  204  A    between atoms: _477  and  _478
REMARK  205  A    between atoms: _477  and  _480
REMARK  206  A    between atoms: _480  and  _481
REMARK  207  A    between atoms: _487  and  _489
REMARK  208  A    between atoms: _489  and  _490
REMARK  209  A    between atoms: _489  and  _492
REMARK  210  A    between atoms: _492  and  _493
REMARK  211  A    between atoms: _496  and  _498
REMARK  212  A    between atoms: _498  and  _499
REMARK  213  A    between atoms: _498  and  _501
REMARK  214  A    between atoms: _504  and  _506
REMARK  215  A    between atoms: _506  and  _507
REMARK  216  A    between atoms: _509  and  _511
REMARK  217  A    between atoms: _511  and  _512
REMARK  218  A    between atoms: _511  and  _514
REMARK  219  A    between atoms: _514  and  _515
REMARK  220  A    between atoms: _518  and  _520
REMARK  221  A    between atoms: _520  and  _521
REMARK  222  A    between atoms: _520  and  _523
REMARK  223  A    between atoms: _523  and  _524
REMARK  224  A    between atoms: _524  and  _525
REMARK  225  A    between atoms: _525  and  _526
REMARK  226  A    between atoms: _526  and  _527
REMARK  227  A    between atoms: _531  and  _533
REMARK  228  A    between atoms: _533  and  _534
REMARK  229  A    between atoms: _533  and  _536
REMARK  230  A    between atoms: _539  and  _541
REMARK  231  A    between atoms: _541  and  _542
REMARK  232  A    between atoms: _541  and  _544
REMARK  233  A    between atoms: _544  and  _545
REMARK  234  A    between atoms: _550  and  _551
REMARK                            x       y       z     vdW  Elec       q    Type
REMARK                         _______ _______ _______ _____ _____    ______ ____
ROOT
ATOM      1  O   HOH     1      -3.480  10.944  27.644  0.00  0.00    +0.000 OA
ENDROOT
TORSDOF 0
REMARK  Name = ../refined-set-2016/4cwn/4cwn_pocket.pdb
REMARK  234 active torsions:
REMARK  status: ('A' for Active; 'I' for Inactive)
REMARK    1  A    between atoms: _1  and  _3
REMARK    2  A    between atoms: _3  and  _4
REMARK    3  A    between atoms: _3  and  _6
REMARK    4  A    between atoms: _6  and  _7
REMARK    5  A    between atoms: _13  and  _15
REMARK    6  A    between atoms: _15  and  _16
REMARK    7  A    between atoms: _15  and  _18
REMARK    8  A    between atoms: _18  and  _19
REMARK    9  A    between atoms: _22  and  _24
REMARK   10  A    between atoms: _24  and  _25
REMARK   11  A    between atoms: _24  and  _27
REMARK   12  A    between atoms: _27  and  _28
REMARK   13  A    between atoms: _31  and  _33
REMARK   14  A    between atoms: _33  and  _34
REMARK   15  A    between atoms: _33  and  _36
REMARK   16  A    between atoms: _36  and  _37
REMARK   17  A    between atoms: _37  and  _38
REMARK   18  A    between atoms: _41  and  _43
REMARK   19  A    between atoms: _43  and  _44
REMARK   20  A    between atoms: _43  and  _46
REMARK   21  A    between atoms: _46  and  _47
REMARK   22  A    between atoms: _50  and  _52
REMARK   23  A    between atoms: _52  and  _53
REMARK   24  A    between atoms: _52  and  _55
REMARK   25  A    between atoms: _55  and  _56
REMARK   26  A    between atoms: _59  and  _61
REMARK   27  A    between atoms: _61  and  _62
REMARK   28  A    between atoms: _61  and  _64
REMARK   29  A    between atoms: _64  and  _65
REMARK   30  A    between atoms: _67  and  _69
REMARK   31  A    between atoms: _69  and  _70
REMARK   32  A    between atoms: _69  and  _72
REMARK   33  A    between atoms: _72  and  _73
REMARK   34  A    between atoms: _78  and  _80
REMARK   35  A    between atoms: _80  and  _81
REMARK   36  A    between atoms: _80  and  _83
REMARK   37  A    between atoms: _83  and  _84
REMARK   38  A    between atoms: _86  and  _88
REMARK   39  A    between atoms: _88  and  _89
REMARK   40  A    between atoms: _88  and  _91
REMARK   41  A    between atoms: _91  and  _92
REMARK   42  A    between atoms: _94  and  _96
REMARK   43  A    between atoms: _96  and  _97
REMARK   44  A    between atoms: _96  and  _99
REMARK   45  A    between atoms: _99  and  _100
REMARK   46  A    between atoms: _103  and  _105
REMARK   47  A    between atoms: _105  and  _106
REMARK   48  A    between atoms: _109  and  _111
REMARK   49  A    between atoms: _111  and  _112
REMARK   50  A    between atoms: _111  and  _114
REMARK   51  A    between atoms: _114  and  _115
REMARK   52  A    between atoms: _118  and  _120
REMARK   53  A    between atoms: _120  and  _121
REMARK   54  A    between atoms: _120  and  _123
REMARK   55  A    between atoms: _123  and  _124
REMARK   56  A    between atoms: _124  and  _125
REMARK   57  A    between atoms: _125  and  _126
REMARK   58  A    between atoms: _126  and  _127
REMARK   59  A    between atoms: _131  and  _133
REMARK   60  A    between atoms: _133  and  _134
REMARK   61  A    between atoms: _133  and  _136
REMARK   62  A    between atoms: _136  and  _137
REMARK   63  A    between atoms: _140  and  _142
REMARK   64  A    between atoms: _142  and  _143
REMARK   65  A    between atoms: _142  and  _145
REMARK   66  A    between atoms: _145  and  _146
REMARK   67  A    between atoms: _149  and  _151
REMARK   68  A    between atoms: _151  and  _152
REMARK   69  A    between atoms: _151  and  _154
REMARK   70  A    between atoms: _157  and  _159
REMARK   71  A    between atoms: _159  and  _160
REMARK   72  A    between atoms: _159  and  _162
REMARK   73  A    between atoms: _162  and  _163
REMARK   74  A    between atoms: _166  and  _168
REMARK   75  A    between atoms: _168  and  _169
REMARK   76  A    between atoms: _168  and  _171
REMARK   77  A    between atoms: _171  and  _172
REMARK   78  A    between atoms: _175  and  _177
REMARK   79  A    between atoms: _177  and  _178
REMARK   80  A    between atoms: _180  and  _182
REMARK   81  A    between atoms: _182  and  _183
REMARK   82  A    between atoms: _182  and  _185
REMARK   83  A    between atoms: _185  and  _186
REMARK   84  A    between atoms: _189  and  _191
REMARK   85  A    between atoms: _191  and  _192
REMARK   86  A    between atoms: _194  and  _196
REMARK   87  A    between atoms: _196  and  _197
REMARK   88  A    between atoms: _196  and  _199
REMARK   89  A    between atoms: _199  and  _200
REMARK   90  A    between atoms: _200  and  _201
REMARK   91  A    between atoms: _203  and  _205
REMARK   92  A    between atoms: _205  and  _206
REMARK   93  A    between atoms: _205  and  _208
REMARK   94  A    between atoms: _208  and  _209
REMARK   95  A    between atoms: _212  and  _214
REMARK   96  A    between atoms: _214  and  _215
REMARK   97  A    between atoms: _214  and  _217
REMARK   98  A    between atoms: _217  and  _218
REMARK   99  A    between atoms: _221  and  _223
REMARK  100  A    between atoms: _223  and  _224
REMARK  101  A    between atoms: _223  and  _226
REMARK  102  A    between atoms: _226  and  _227
REMARK  103  A    between atoms: _230  and  _232
REMARK  104  A    between atoms: _232  and  _233
REMARK  105  A    between atoms: _232  and  _235
REMARK  106  A    between atoms: _235  and  _236
REMARK  107  A    between atoms: _239  and  _241
REMARK  108  A    between atoms: _241  and  _242
REMARK  109  A    between atoms: _241  and  _244
REMARK  110  A    between atoms: _244  and  _245
REMARK  111  A    between atoms: _250  and  _252
REMARK  112  A    between atoms: _252  and  _253
REMARK  113  A    between atoms: _252  and  _255
REMARK  114  A    between atoms: _255  and  _256
REMARK  115  A    between atoms: _259  and  _261
REMARK  116  A    between atoms: _261  and  _262
REMARK  117  A    between atoms: _264  and  _266
REMARK  118  A    between atoms: _266  and  _267
REMARK  119  A    between atoms: _266  and  _269
REMARK  120  A    between atoms: _269  and  _270
REMARK  121  A    between atoms: _273  and  _275
REMARK  122  A    between atoms: _275  and  _276
REMARK  123  A    between atoms: _275  and  _278
REMARK  124  A    between atoms: _278  and  _279
REMARK  125  A    between atoms: _282  and  _284
REMARK  126  A    between atoms: _284  and  _285
REMARK  127  A    between atoms: _288  and  _290
REMARK  128  A    between atoms: _290  and  _291
REMARK  129  A    between atoms: _290  and  _293
REMARK  130  A    between atoms: _293  and  _294
REMARK  131  A    between atoms: _294  and  _295
REMARK  132  A    between atoms: _295  and  _296
REMARK  133  A    between atoms: _296  and  _297
REMARK  134  A    between atoms: _301  and  _303
REMARK  135  A    between atoms: _303  and  _304
REMARK  136  A    between atoms: _303  and  _306
REMARK  137  A    between atoms: _306  and  _307
REMARK  138  A    between atoms: _310  and  _312
REMARK  139  A    between atoms: _312  and  _313
REMARK  140  A    between atoms: _315  and  _317
REMARK  141  A    between atoms: _317  and  _318
REMARK  142  A    between atoms: _317  and  _320
REMARK  143  A    between atoms: _323  and  _325
REMARK  144  A    between atoms: _325  and  _326
REMARK  145  A    between atoms: _328  and  _330
REMARK  146  A    between atoms: _330  and  _331
REMARK  147  A    between atoms: _330  and  _333
REMARK  148  A    between atoms: _333  and  _334
REMARK  149  A    between atoms: _340  and  _342
REMARK  150  A    between atoms: _342  and  _343
REMARK  151  A    between atoms: _342  and  _345
REMARK  152  A    between atoms: _345  and  _346
REMARK  153  A    between atoms: _351  and  _352
REMARK  154  A    between atoms: _354  and  _356
REMARK  155  A    between atoms: _356  and  _357
REMARK  156  A    between atoms: _356  and  _359
REMARK  157  A    between atoms: _359  and  _360
REMARK  158  A    between atoms: _365  and  _366
REMARK  159  A    between atoms: _368  and  _370
REMARK  160  A    between atoms: _370  and  _371
REMARK  161  A    between atoms: _370  and  _373
REMARK  162  A    between atoms: _376  and  _378
REMARK  163  A    between atoms: _378  and  _379
REMARK  164  A    between atoms: _378  and  _381
REMARK  165  A    between atoms: _381  and  _382
REMARK  166  A    between atoms: _385  and  _387
REMARK  167  A    between atoms: _387  and  _388
REMARK  168  A    between atoms: _387  and  _390
REMARK  169  A    between atoms: _393  and  _395
REMARK  170  A    between atoms: _395  and  _396
REMARK  171  A    between atoms: _395  and  _398
REMARK  172  A    between atoms: _398  and  _399
REMARK  173  A    between atoms: _402  and  _404
REMARK  174  A    between atoms: _404  and  _405
REMARK  175  A    between atoms: _404  and  _407
REMARK  176  A    between atoms: _407  and  _408
REMARK  177  A    between atoms: _411  and  _413
REMARK  178  A    between atoms: _413  and  _414
REMARK  179  A    between atoms: _413  and  _416
REMARK  180  A    between atoms: _416  and  _417
REMARK  181  A    between atoms: _417  and  _418
REMARK  182  A    between atoms: _418  and  _419
REMARK  183  A    between atoms: _419  and  _420
REMARK  184  A    between atoms: _424  and  _426
REMARK  185  A    between atoms: _426  and  _427
REMARK  186  A    between atoms: _426  and  _429
REMARK  187  A    between atoms: _429  and  _430
REMARK  188  A    between atoms: _435  and  _437
REMARK  189  A    between atoms: _437  and  _438
REMARK  190  A    between atoms: _441  and  _443
REMARK  191  A    between atoms: _443  and  _444
REMARK  192  A    between atoms: _443  and  _446
REMARK  193  A    between atoms: _446  and  _447
REMARK  194  A    between atoms: _457  and  _459
REMARK  195  A    between atoms: _459  and  _460
REMARK  196  A    between atoms: _459  and  _462
REMARK  197  A    between atoms: _462  and  _463
REMARK  198  A    between atoms: _463  and  _464
REMARK  199  A    between atoms: _467  and  _469
REMARK  200  A    between atoms: _469  and  _470
REMARK  201  A    between atoms: _469  and  _472
REMARK  202  A    between atoms: _472  and  _473
REMARK  203  A    between atoms: _475  and  _477
REMARK  204  A    between atoms: _477  and  _478
REMARK  205  A    between atoms: _477  and  _480
REMARK  206  A    between atoms: _480  and  _481
REMARK  207  A    between atoms: _487  and  _489
REMARK  208  A    between atoms: _489  and  _490
REMARK  209  A    between atoms: _489  and  _492
REMARK  210  A    between atoms: _492  and  _493
REMARK  211  A    between atoms: _496  and  _498
REMARK  212  A    between atoms: _498  and  _499
REMARK  213  A    between atoms: _498  and  _501
REMARK  214  A    between atoms: _504  and  _506
REMARK  215  A    between atoms: _506  and  _507
REMARK  216  A    between atoms: _509  and  _511
REMARK  217  A    between atoms: _511  and  _512
REMARK  218  A    between atoms: _511  and  _514
REMARK  219  A    between atoms: _514  and  _515
REMARK  220  A    between atoms: _518  and  _520
REMARK  221  A    between atoms: _520  and  _521
REMARK  222  A    between atoms: _520  and  _523
REMARK  223  A    between atoms: _523  and  _524
REMARK  224  A    between atoms: _524  and  _525
REMARK  225  A    between atoms: _525  and  _526
REMARK  226  A    between atoms: _526  and  _527
REMARK  227  A    between atoms: _531  and  _533
REMARK  228  A    between atoms: _533  and  _534
REMARK  229  A    between atoms: _533  and  _536
REMARK  230  A    between atoms: _539  and  _541
REMARK  231  A    between atoms: _541  and  _542
REMARK  232  A    between atoms: _541  and  _544
REMARK  233  A    between atoms: _544  and  _545
REMARK  234  A    between atoms: _550  and  _551
REMARK                            x       y       z     vdW  Elec       q    Type
REMARK                         _______ _______ _______ _____ _____    ______ ____
ROOT
ATOM      1  O   HOH     1       1.273   7.868  32.404  0.00  0.00    +0.000 OA
ENDROOT
TORSDOF 0
REMARK  Name = ../refined-set-2016/4cwn/4cwn_pocket.pdb
REMARK  234 active torsions:
REMARK  status: ('A' for Active; 'I' for Inactive)
REMARK    1  A    between atoms: _1  and  _3
REMARK    2  A    between atoms: _3  and  _4
REMARK    3  A    between atoms: _3  and  _6
REMARK    4  A    between atoms: _6  and  _7
REMARK    5  A    between atoms: _13  and  _15
REMARK    6  A    between atoms: _15  and  _16
REMARK    7  A    between atoms: _15  and  _18
REMARK    8  A    between atoms: _18  and  _19
REMARK    9  A    between atoms: _22  and  _24
REMARK   10  A    between atoms: _24  and  _25
REMARK   11  A    between atoms: _24  and  _27
REMARK   12  A    between atoms: _27  and  _28
REMARK   13  A    between atoms: _31  and  _33
REMARK   14  A    between atoms: _33  and  _34
REMARK   15  A    between atoms: _33  and  _36
REMARK   16  A    between atoms: _36  and  _37
REMARK   17  A    between atoms: _37  and  _38
REMARK   18  A    between atoms: _41  and  _43
REMARK   19  A    between atoms: _43  and  _44
REMARK   20  A    between atoms: _43  and  _46
REMARK   21  A    between atoms: _46  and  _47
REMARK   22  A    between atoms: _50  and  _52
REMARK   23  A    between atoms: _52  and  _53
REMARK   24  A    between atoms: _52  and  _55
REMARK   25  A    between atoms: _55  and  _56
REMARK   26  A    between atoms: _59  and  _61
REMARK   27  A    between atoms: _61  and  _62
REMARK   28  A    between atoms: _61  and  _64
REMARK   29  A    between atoms: _64  and  _65
REMARK   30  A    between atoms: _67  and  _69
REMARK   31  A    between atoms: _69  and  _70
REMARK   32  A    between atoms: _69  and  _72
REMARK   33  A    between atoms: _72  and  _73
REMARK   34  A    between atoms: _78  and  _80
REMARK   35  A    between atoms: _80  and  _81
REMARK   36  A    between atoms: _80  and  _83
REMARK   37  A    between atoms: _83  and  _84
REMARK   38  A    between atoms: _86  and  _88
REMARK   39  A    between atoms: _88  and  _89
REMARK   40  A    between atoms: _88  and  _91
REMARK   41  A    between atoms: _91  and  _92
REMARK   42  A    between atoms: _94  and  _96
REMARK   43  A    between atoms: _96  and  _97
REMARK   44  A    between atoms: _96  and  _99
REMARK   45  A    between atoms: _99  and  _100
REMARK   46  A    between atoms: _103  and  _105
REMARK   47  A    between atoms: _105  and  _106
REMARK   48  A    between atoms: _109  and  _111
REMARK   49  A    between atoms: _111  and  _112
REMARK   50  A    between atoms: _111  and  _114
REMARK   51  A    between atoms: _114  and  _115
REMARK   52  A    between atoms: _118  and  _120
REMARK   53  A    between atoms: _120  and  _121
REMARK   54  A    between atoms: _120  and  _123
REMARK   55  A    between atoms: _123  and  _124
REMARK   56  A    between atoms: _124  and  _125
REMARK   57  A    between atoms: _125  and  _126
REMARK   58  A    between atoms: _126  and  _127
REMARK   59  A    between atoms: _131  and  _133
REMARK   60  A    between atoms: _133  and  _134
REMARK   61  A    between atoms: _133  and  _136
REMARK   62  A    between atoms: _136  and  _137
REMARK   63  A    between atoms: _140  and  _142
REMARK   64  A    between atoms: _142  and  _143
REMARK   65  A    between atoms: _142  and  _145
REMARK   66  A    between atoms: _145  and  _146
REMARK   67  A    between atoms: _149  and  _151
REMARK   68  A    between atoms: _151  and  _152
REMARK   69  A    between atoms: _151  and  _154
REMARK   70  A    between atoms: _157  and  _159
REMARK   71  A    between atoms: _159  and  _160
REMARK   72  A    between atoms: _159  and  _162
REMARK   73  A    between atoms: _162  and  _163
REMARK   74  A    between atoms: _166  and  _168
REMARK   75  A    between atoms: _168  and  _169
REMARK   76  A    between atoms: _168  and  _171
REMARK   77  A    between atoms: _171  and  _172
REMARK   78  A    between atoms: _175  and  _177
REMARK   79  A    between atoms: _177  and  _178
REMARK   80  A    between atoms: _180  and  _182
REMARK   81  A    between atoms: _182  and  _183
REMARK   82  A    between atoms: _182  and  _185
REMARK   83  A    between atoms: _185  and  _186
REMARK   84  A    between atoms: _189  and  _191
REMARK   85  A    between atoms: _191  and  _192
REMARK   86  A    between atoms: _194  and  _196
REMARK   87  A    between atoms: _196  and  _197
REMARK   88  A    between atoms: _196  and  _199
REMARK   89  A    between atoms: _199  and  _200
REMARK   90  A    between atoms: _200  and  _201
REMARK   91  A    between atoms: _203  and  _205
REMARK   92  A    between atoms: _205  and  _206
REMARK   93  A    between atoms: _205  and  _208
REMARK   94  A    between atoms: _208  and  _209
REMARK   95  A    between atoms: _212  and  _214
REMARK   96  A    between atoms: _214  and  _215
REMARK   97  A    between atoms: _214  and  _217
REMARK   98  A    between atoms: _217  and  _218
REMARK   99  A    between atoms: _221  and  _223
REMARK  100  A    between atoms: _223  and  _224
REMARK  101  A    between atoms: _223  and  _226
REMARK  102  A    between atoms: _226  and  _227
REMARK  103  A    between atoms: _230  and  _232
REMARK  104  A    between atoms: _232  and  _233
REMARK  105  A    between atoms: _232  and  _235
REMARK  106  A    between atoms: _235  and  _236
REMARK  107  A    between atoms: _239  and  _241
REMARK  108  A    between atoms: _241  and  _242
REMARK  109  A    between atoms: _241  and  _244
REMARK  110  A    between atoms: _244  and  _245
REMARK  111  A    between atoms: _250  and  _252
REMARK  112  A    between atoms: _252  and  _253
REMARK  113  A    between atoms: _252  and  _255
REMARK  114  A    between atoms: _255  and  _256
REMARK  115  A    between atoms: _259  and  _261
REMARK  116  A    between atoms: _261  and  _262
REMARK  117  A    between atoms: _264  and  _266
REMARK  118  A    between atoms: _266  and  _267
REMARK  119  A    between atoms: _266  and  _269
REMARK  120  A    between atoms: _269  and  _270
REMARK  121  A    between atoms: _273  and  _275
REMARK  122  A    between atoms: _275  and  _276
REMARK  123  A    between atoms: _275  and  _278
REMARK  124  A    between atoms: _278  and  _279
REMARK  125  A    between atoms: _282  and  _284
REMARK  126  A    between atoms: _284  and  _285
REMARK  127  A    between atoms: _288  and  _290
REMARK  128  A    between atoms: _290  and  _291
REMARK  129  A    between atoms: _290  and  _293
REMARK  130  A    between atoms: _293  and  _294
REMARK  131  A    between atoms: _294  and  _295
REMARK  132  A    between atoms: _295  and  _296
REMARK  133  A    between atoms: _296  and  _297
REMARK  134  A    between atoms: _301  and  _303
REMARK  135  A    between atoms: _303  and  _304
REMARK  136  A    between atoms: _303  and  _306
REMARK  137  A    between atoms: _306  and  _307
REMARK  138  A    between atoms: _310  and  _312
REMARK  139  A    between atoms: _312  and  _313
REMARK  140  A    between atoms: _315  and  _317
REMARK  141  A    between atoms: _317  and  _318
REMARK  142  A    between atoms: _317  and  _320
REMARK  143  A    between atoms: _323  and  _325
REMARK  144  A    between atoms: _325  and  _326
REMARK  145  A    between atoms: _328  and  _330
REMARK  146  A    between atoms: _330  and  _331
REMARK  147  A    between atoms: _330  and  _333
REMARK  148  A    between atoms: _333  and  _334
REMARK  149  A    between atoms: _340  and  _342
REMARK  150  A    between atoms: _342  and  _343
REMARK  151  A    between atoms: _342  and  _345
REMARK  152  A    between atoms: _345  and  _346
REMARK  153  A    between atoms: _351  and  _352
REMARK  154  A    between atoms: _354  and  _356
REMARK  155  A    between atoms: _356  and  _357
REMARK  156  A    between atoms: _356  and  _359
REMARK  157  A    between atoms: _359  and  _360
REMARK  158  A    between atoms: _365  and  _366
REMARK  159  A    between atoms: _368  and  _370
REMARK  160  A    between atoms: _370  and  _371
REMARK  161  A    between atoms: _370  and  _373
REMARK  162  A    between atoms: _376  and  _378
REMARK  163  A    between atoms: _378  and  _379
REMARK  164  A    between atoms: _378  and  _381
REMARK  165  A    between atoms: _381  and  _382
REMARK  166  A    between atoms: _385  and  _387
REMARK  167  A    between atoms: _387  and  _388
REMARK  168  A    between atoms: _387  and  _390
REMARK  169  A    between atoms: _393  and  _395
REMARK  170  A    between atoms: _395  and  _396
REMARK  171  A    between atoms: _395  and  _398
REMARK  172  A    between atoms: _398  and  _399
REMARK  173  A    between atoms: _402  and  _404
REMARK  174  A    between atoms: _404  and  _405
REMARK  175  A    between atoms: _404  and  _407
REMARK  176  A    between atoms: _407  and  _408
REMARK  177  A    between atoms: _411  and  _413
REMARK  178  A    between atoms: _413  and  _414
REMARK  179  A    between atoms: _413  and  _416
REMARK  180  A    between atoms: _416  and  _417
REMARK  181  A    between atoms: _417  and  _418
REMARK  182  A    between atoms: _418  and  _419
REMARK  183  A    between atoms: _419  and  _420
REMARK  184  A    between atoms: _424  and  _426
REMARK  185  A    between atoms: _426  and  _427
REMARK  186  A    between atoms: _426  and  _429
REMARK  187  A    between atoms: _429  and  _430
REMARK  188  A    between atoms: _435  and  _437
REMARK  189  A    between atoms: _437  and  _438
REMARK  190  A    between atoms: _441  and  _443
REMARK  191  A    between atoms: _443  and  _444
REMARK  192  A    between atoms: _443  and  _446
REMARK  193  A    between atoms: _446  and  _447
REMARK  194  A    between atoms: _457  and  _459
REMARK  195  A    between atoms: _459  and  _460
REMARK  196  A    between atoms: _459  and  _462
REMARK  197  A    between atoms: _462  and  _463
REMARK  198  A    between atoms: _463  and  _464
REMARK  199  A    between atoms: _467  and  _469
REMARK  200  A    between atoms: _469  and  _470
REMARK  201  A    between atoms: _469  and  _472
REMARK  202  A    between atoms: _472  and  _473
REMARK  203  A    between atoms: _475  and  _477
REMARK  204  A    between atoms: _477  and  _478
REMARK  205  A    between atoms: _477  and  _480
REMARK  206  A    between atoms: _480  and  _481
REMARK  207  A    between atoms: _487  and  _489
REMARK  208  A    between atoms: _489  and  _490
REMARK  209  A    between atoms: _489  and  _492
REMARK  210  A    between atoms: _492  and  _493
REMARK  211  A    between atoms: _496  and  _498
REMARK  212  A    between atoms: _498  and  _499
REMARK  213  A    between atoms: _498  and  _501
REMARK  214  A    between atoms: _504  and  _506
REMARK  215  A    between atoms: _506  and  _507
REMARK  216  A    between atoms: _509  and  _511
REMARK  217  A    between atoms: _511  and  _512
REMARK  218  A    between atoms: _511  and  _514
REMARK  219  A    between atoms: _514  and  _515
REMARK  220  A    between atoms: _518  and  _520
REMARK  221  A    between atoms: _520  and  _521
REMARK  222  A    between atoms: _520  and  _523
REMARK  223  A    between atoms: _523  and  _524
REMARK  224  A    between atoms: _524  and  _525
REMARK  225  A    between atoms: _525  and  _526
REMARK  226  A    between atoms: _526  and  _527
REMARK  227  A    between atoms: _531  and  _533
REMARK  228  A    between atoms: _533  and  _534
REMARK  229  A    between atoms: _533  and  _536
REMARK  230  A    between atoms: _539  and  _541
REMARK  231  A    between atoms: _541  and  _542
REMARK  232  A    between atoms: _541  and  _544
REMARK  233  A    between atoms: _544  and  _545
REMARK  234  A    between atoms: _550  and  _551
REMARK                            x       y       z     vdW  Elec       q    Type
REMARK                         _______ _______ _______ _____ _____    ______ ____
ROOT
ATOM      1  O   HOH     1      10.561  12.796  29.033  0.00  0.00    +0.000 OA
ENDROOT
TORSDOF 0
REMARK  Name = ../refined-set-2016/4cwn/4cwn_pocket.pdb
REMARK  234 active torsions:
REMARK  status: ('A' for Active; 'I' for Inactive)
REMARK    1  A    between atoms: _1  and  _3
REMARK    2  A    between atoms: _3  and  _4
REMARK    3  A    between atoms: _3  and  _6
REMARK    4  A    between atoms: _6  and  _7
REMARK    5  A    between atoms: _13  and  _15
REMARK    6  A    between atoms: _15  and  _16
REMARK    7  A    between atoms: _15  and  _18
REMARK    8  A    between atoms: _18  and  _19
REMARK    9  A    between atoms: _22  and  _24
REMARK   10  A    between atoms: _24  and  _25
REMARK   11  A    between atoms: _24  and  _27
REMARK   12  A    between atoms: _27  and  _28
REMARK   13  A    between atoms: _31  and  _33
REMARK   14  A    between atoms: _33  and  _34
REMARK   15  A    between atoms: _33  and  _36
REMARK   16  A    between atoms: _36  and  _37
REMARK   17  A    between atoms: _37  and  _38
REMARK   18  A    between atoms: _41  and  _43
REMARK   19  A    between atoms: _43  and  _44
REMARK   20  A    between atoms: _43  and  _46
REMARK   21  A    between atoms: _46  and  _47
REMARK   22  A    between atoms: _50  and  _52
REMARK   23  A    between atoms: _52  and  _53
REMARK   24  A    between atoms: _52  and  _55
REMARK   25  A    between atoms: _55  and  _56
REMARK   26  A    between atoms: _59  and  _61
REMARK   27  A    between atoms: _61  and  _62
REMARK   28  A    between atoms: _61  and  _64
REMARK   29  A    between atoms: _64  and  _65
REMARK   30  A    between atoms: _67  and  _69
REMARK   31  A    between atoms: _69  and  _70
REMARK   32  A    between atoms: _69  and  _72
REMARK   33  A    between atoms: _72  and  _73
REMARK   34  A    between atoms: _78  and  _80
REMARK   35  A    between atoms: _80  and  _81
REMARK   36  A    between atoms: _80  and  _83
REMARK   37  A    between atoms: _83  and  _84
REMARK   38  A    between atoms: _86  and  _88
REMARK   39  A    between atoms: _88  and  _89
REMARK   40  A    between atoms: _88  and  _91
REMARK   41  A    between atoms: _91  and  _92
REMARK   42  A    between atoms: _94  and  _96
REMARK   43  A    between atoms: _96  and  _97
REMARK   44  A    between atoms: _96  and  _99
REMARK   45  A    between atoms: _99  and  _100
REMARK   46  A    between atoms: _103  and  _105
REMARK   47  A    between atoms: _105  and  _106
REMARK   48  A    between atoms: _109  and  _111
REMARK   49  A    between atoms: _111  and  _112
REMARK   50  A    between atoms: _111  and  _114
REMARK   51  A    between atoms: _114  and  _115
REMARK   52  A    between atoms: _118  and  _120
REMARK   53  A    between atoms: _120  and  _121
REMARK   54  A    between atoms: _120  and  _123
REMARK   55  A    between atoms: _123  and  _124
REMARK   56  A    between atoms: _124  and  _125
REMARK   57  A    between atoms: _125  and  _126
REMARK   58  A    between atoms: _126  and  _127
REMARK   59  A    between atoms: _131  and  _133
REMARK   60  A    between atoms: _133  and  _134
REMARK   61  A    between atoms: _133  and  _136
REMARK   62  A    between atoms: _136  and  _137
REMARK   63  A    between atoms: _140  and  _142
REMARK   64  A    between atoms: _142  and  _143
REMARK   65  A    between atoms: _142  and  _145
REMARK   66  A    between atoms: _145  and  _146
REMARK   67  A    between atoms: _149  and  _151
REMARK   68  A    between atoms: _151  and  _152
REMARK   69  A    between atoms: _151  and  _154
REMARK   70  A    between atoms: _157  and  _159
REMARK   71  A    between atoms: _159  and  _160
REMARK   72  A    between atoms: _159  and  _162
REMARK   73  A    between atoms: _162  and  _163
REMARK   74  A    between atoms: _166  and  _168
REMARK   75  A    between atoms: _168  and  _169
REMARK   76  A    between atoms: _168  and  _171
REMARK   77  A    between atoms: _171  and  _172
REMARK   78  A    between atoms: _175  and  _177
REMARK   79  A    between atoms: _177  and  _178
REMARK   80  A    between atoms: _180  and  _182
REMARK   81  A    between atoms: _182  and  _183
REMARK   82  A    between atoms: _182  and  _185
REMARK   83  A    between atoms: _185  and  _186
REMARK   84  A    between atoms: _189  and  _191
REMARK   85  A    between atoms: _191  and  _192
REMARK   86  A    between atoms: _194  and  _196
REMARK   87  A    between atoms: _196  and  _197
REMARK   88  A    between atoms: _196  and  _199
REMARK   89  A    between atoms: _199  and  _200
REMARK   90  A    between atoms: _200  and  _201
REMARK   91  A    between atoms: _203  and  _205
REMARK   92  A    between atoms: _205  and  _206
REMARK   93  A    between atoms: _205  and  _208
REMARK   94  A    between atoms: _208  and  _209
REMARK   95  A    between atoms: _212  and  _214
REMARK   96  A    between atoms: _214  and  _215
REMARK   97  A    between atoms: _214  and  _217
REMARK   98  A    between atoms: _217  and  _218
REMARK   99  A    between atoms: _221  and  _223
REMARK  100  A    between atoms: _223  and  _224
REMARK  101  A    between atoms: _223  and  _226
REMARK  102  A    between atoms: _226  and  _227
REMARK  103  A    between atoms: _230  and  _232
REMARK  104  A    between atoms: _232  and  _233
REMARK  105  A    between atoms: _232  and  _235
REMARK  106  A    between atoms: _235  and  _236
REMARK  107  A    between atoms: _239  and  _241
REMARK  108  A    between atoms: _241  and  _242
REMARK  109  A    between atoms: _241  and  _244
REMARK  110  A    between atoms: _244  and  _245
REMARK  111  A    between atoms: _250  and  _252
REMARK  112  A    between atoms: _252  and  _253
REMARK  113  A    between atoms: _252  and  _255
REMARK  114  A    between atoms: _255  and  _256
REMARK  115  A    between atoms: _259  and  _261
REMARK  116  A    between atoms: _261  and  _262
REMARK  117  A    between atoms: _264  and  _266
REMARK  118  A    between atoms: _266  and  _267
REMARK  119  A    between atoms: _266  and  _269
REMARK  120  A    between atoms: _269  and  _270
REMARK  121  A    between atoms: _273  and  _275
REMARK  122  A    between atoms: _275  and  _276
REMARK  123  A    between atoms: _275  and  _278
REMARK  124  A    between atoms: _278  and  _279
REMARK  125  A    between atoms: _282  and  _284
REMARK  126  A    between atoms: _284  and  _285
REMARK  127  A    between atoms: _288  and  _290
REMARK  128  A    between atoms: _290  and  _291
REMARK  129  A    between atoms: _290  and  _293
REMARK  130  A    between atoms: _293  and  _294
REMARK  131  A    between atoms: _294  and  _295
REMARK  132  A    between atoms: _295  and  _296
REMARK  133  A    between atoms: _296  and  _297
REMARK  134  A    between atoms: _301  and  _303
REMARK  135  A    between atoms: _303  and  _304
REMARK  136  A    between atoms: _303  and  _306
REMARK  137  A    between atoms: _306  and  _307
REMARK  138  A    between atoms: _310  and  _312
REMARK  139  A    between atoms: _312  and  _313
REMARK  140  A    between atoms: _315  and  _317
REMARK  141  A    between atoms: _317  and  _318
REMARK  142  A    between atoms: _317  and  _320
REMARK  143  A    between atoms: _323  and  _325
REMARK  144  A    between atoms: _325  and  _326
REMARK  145  A    between atoms: _328  and  _330
REMARK  146  A    between atoms: _330  and  _331
REMARK  147  A    between atoms: _330  and  _333
REMARK  148  A    between atoms: _333  and  _334
REMARK  149  A    between atoms: _340  and  _342
REMARK  150  A    between atoms: _342  and  _343
REMARK  151  A    between atoms: _342  and  _345
REMARK  152  A    between atoms: _345  and  _346
REMARK  153  A    between atoms: _351  and  _352
REMARK  154  A    between atoms: _354  and  _356
REMARK  155  A    between atoms: _356  and  _357
REMARK  156  A    between atoms: _356  and  _359
REMARK  157  A    between atoms: _359  and  _360
REMARK  158  A    between atoms: _365  and  _366
REMARK  159  A    between atoms: _368  and  _370
REMARK  160  A    between atoms: _370  and  _371
REMARK  161  A    between atoms: _370  and  _373
REMARK  162  A    between atoms: _376  and  _378
REMARK  163  A    between atoms: _378  and  _379
REMARK  164  A    between atoms: _378  and  _381
REMARK  165  A    between atoms: _381  and  _382
REMARK  166  A    between atoms: _385  and  _387
REMARK  167  A    between atoms: _387  and  _388
REMARK  168  A    between atoms: _387  and  _390
REMARK  169  A    between atoms: _393  and  _395
REMARK  170  A    between atoms: _395  and  _396
REMARK  171  A    between atoms: _395  and  _398
REMARK  172  A    between atoms: _398  and  _399
REMARK  173  A    between atoms: _402  and  _404
REMARK  174  A    between atoms: _404  and  _405
REMARK  175  A    between atoms: _404  and  _407
REMARK  176  A    between atoms: _407  and  _408
REMARK  177  A    between atoms: _411  and  _413
REMARK  178  A    between atoms: _413  and  _414
REMARK  179  A    between atoms: _413  and  _416
REMARK  180  A    between atoms: _416  and  _417
REMARK  181  A    between atoms: _417  and  _418
REMARK  182  A    between atoms: _418  and  _419
REMARK  183  A    between atoms: _419  and  _420
REMARK  184  A    between atoms: _424  and  _426
REMARK  185  A    between atoms: _426  and  _427
REMARK  186  A    between atoms: _426  and  _429
REMARK  187  A    between atoms: _429  and  _430
REMARK  188  A    between atoms: _435  and  _437
REMARK  189  A    between atoms: _437  and  _438
REMARK  190  A    between atoms: _441  and  _443
REMARK  191  A    between atoms: _443  and  _444
REMARK  192  A    between atoms: _443  and  _446
REMARK  193  A    between atoms: _446  and  _447
REMARK  194  A    between atoms: _457  and  _459
REMARK  195  A    between atoms: _459  and  _460
REMARK  196  A    between atoms: _459  and  _462
REMARK  197  A    between atoms: _462  and  _463
REMARK  198  A    between atoms: _463  and  _464
REMARK  199  A    between atoms: _467  and  _469
REMARK  200  A    between atoms: _469  and  _470
REMARK  201  A    between atoms: _469  and  _472
REMARK  202  A    between atoms: _472  and  _473
REMARK  203  A    between atoms: _475  and  _477
REMARK  204  A    between atoms: _477  and  _478
REMARK  205  A    between atoms: _477  and  _480
REMARK  206  A    between atoms: _480  and  _481
REMARK  207  A    between atoms: _487  and  _489
REMARK  208  A    between atoms: _489  and  _490
REMARK  209  A    between atoms: _489  and  _492
REMARK  210  A    between atoms: _492  and  _493
REMARK  211  A    between atoms: _496  and  _498
REMARK  212  A    between atoms: _498  and  _499
REMARK  213  A    between atoms: _498  and  _501
REMARK  214  A    between atoms: _504  and  _506
REMARK  215  A    between atoms: _506  and  _507
REMARK  216  A    between atoms: _509  and  _511
REMARK  217  A    between atoms: _511  and  _512
REMARK  218  A    between atoms: _511  and  _514
REMARK  219  A    between atoms: _514  and  _515
REMARK  220  A    between atoms: _518  and  _520
REMARK  221  A    between atoms: _520  and  _521
REMARK  222  A    between atoms: _520  and  _523
REMARK  223  A    between atoms: _523  and  _524
REMARK  224  A    between atoms: _524  and  _525
REMARK  225  A    between atoms: _525  and  _526
REMARK  226  A    between atoms: _526  and  _527
REMARK  227  A    between atoms: _531  and  _533
REMARK  228  A    between atoms: _533  and  _534
REMARK  229  A    between atoms: _533  and  _536
REMARK  230  A    between atoms: _539  and  _541
REMARK  231  A    between atoms: _541  and  _542
REMARK  232  A    between atoms: _541  and  _544
REMARK  233  A    between atoms: _544  and  _545
REMARK  234  A    between atoms: _550  and  _551
REMARK                            x       y       z     vdW  Elec       q    Type
REMARK                         _______ _______ _______ _____ _____    ______ ____
ROOT
ATOM      1  O   HOH     1       9.855  15.779  27.295  0.00  0.00    +0.000 OA
ENDROOT
TORSDOF 0
REMARK  Name = ../refined-set-2016/4cwn/4cwn_pocket.pdb
REMARK  234 active torsions:
REMARK  status: ('A' for Active; 'I' for Inactive)
REMARK    1  A    between atoms: _1  and  _3
REMARK    2  A    between atoms: _3  and  _4
REMARK    3  A    between atoms: _3  and  _6
REMARK    4  A    between atoms: _6  and  _7
REMARK    5  A    between atoms: _13  and  _15
REMARK    6  A    between atoms: _15  and  _16
REMARK    7  A    between atoms: _15  and  _18
REMARK    8  A    between atoms: _18  and  _19
REMARK    9  A    between atoms: _22  and  _24
REMARK   10  A    between atoms: _24  and  _25
REMARK   11  A    between atoms: _24  and  _27
REMARK   12  A    between atoms: _27  and  _28
REMARK   13  A    between atoms: _31  and  _33
REMARK   14  A    between atoms: _33  and  _34
REMARK   15  A    between atoms: _33  and  _36
REMARK   16  A    between atoms: _36  and  _37
REMARK   17  A    between atoms: _37  and  _38
REMARK   18  A    between atoms: _41  and  _43
REMARK   19  A    between atoms: _43  and  _44
REMARK   20  A    between atoms: _43  and  _46
REMARK   21  A    between atoms: _46  and  _47
REMARK   22  A    between atoms: _50  and  _52
REMARK   23  A    between atoms: _52  and  _53
REMARK   24  A    between atoms: _52  and  _55
REMARK   25  A    between atoms: _55  and  _56
REMARK   26  A    between atoms: _59  and  _61
REMARK   27  A    between atoms: _61  and  _62
REMARK   28  A    between atoms: _61  and  _64
REMARK   29  A    between atoms: _64  and  _65
REMARK   30  A    between atoms: _67  and  _69
REMARK   31  A    between atoms: _69  and  _70
REMARK   32  A    between atoms: _69  and  _72
REMARK   33  A    between atoms: _72  and  _73
REMARK   34  A    between atoms: _78  and  _80
REMARK   35  A    between atoms: _80  and  _81
REMARK   36  A    between atoms: _80  and  _83
REMARK   37  A    between atoms: _83  and  _84
REMARK   38  A    between atoms: _86  and  _88
REMARK   39  A    between atoms: _88  and  _89
REMARK   40  A    between atoms: _88  and  _91
REMARK   41  A    between atoms: _91  and  _92
REMARK   42  A    between atoms: _94  and  _96
REMARK   43  A    between atoms: _96  and  _97
REMARK   44  A    between atoms: _96  and  _99
REMARK   45  A    between atoms: _99  and  _100
REMARK   46  A    between atoms: _103  and  _105
REMARK   47  A    between atoms: _105  and  _106
REMARK   48  A    between atoms: _109  and  _111
REMARK   49  A    between atoms: _111  and  _112
REMARK   50  A    between atoms: _111  and  _114
REMARK   51  A    between atoms: _114  and  _115
REMARK   52  A    between atoms: _118  and  _120
REMARK   53  A    between atoms: _120  and  _121
REMARK   54  A    between atoms: _120  and  _123
REMARK   55  A    between atoms: _123  and  _124
REMARK   56  A    between atoms: _124  and  _125
REMARK   57  A    between atoms: _125  and  _126
REMARK   58  A    between atoms: _126  and  _127
REMARK   59  A    between atoms: _131  and  _133
REMARK   60  A    between atoms: _133  and  _134
REMARK   61  A    between atoms: _133  and  _136
REMARK   62  A    between atoms: _136  and  _137
REMARK   63  A    between atoms: _140  and  _142
REMARK   64  A    between atoms: _142  and  _143
REMARK   65  A    between atoms: _142  and  _145
REMARK   66  A    between atoms: _145  and  _146
REMARK   67  A    between atoms: _149  and  _151
REMARK   68  A    between atoms: _151  and  _152
REMARK   69  A    between atoms: _151  and  _154
REMARK   70  A    between atoms: _157  and  _159
REMARK   71  A    between atoms: _159  and  _160
REMARK   72  A    between atoms: _159  and  _162
REMARK   73  A    between atoms: _162  and  _163
REMARK   74  A    between atoms: _166  and  _168
REMARK   75  A    between atoms: _168  and  _169
REMARK   76  A    between atoms: _168  and  _171
REMARK   77  A    between atoms: _171  and  _172
REMARK   78  A    between atoms: _175  and  _177
REMARK   79  A    between atoms: _177  and  _178
REMARK   80  A    between atoms: _180  and  _182
REMARK   81  A    between atoms: _182  and  _183
REMARK   82  A    between atoms: _182  and  _185
REMARK   83  A    between atoms: _185  and  _186
REMARK   84  A    between atoms: _189  and  _191
REMARK   85  A    between atoms: _191  and  _192
REMARK   86  A    between atoms: _194  and  _196
REMARK   87  A    between atoms: _196  and  _197
REMARK   88  A    between atoms: _196  and  _199
REMARK   89  A    between atoms: _199  and  _200
REMARK   90  A    between atoms: _200  and  _201
REMARK   91  A    between atoms: _203  and  _205
REMARK   92  A    between atoms: _205  and  _206
REMARK   93  A    between atoms: _205  and  _208
REMARK   94  A    between atoms: _208  and  _209
REMARK   95  A    between atoms: _212  and  _214
REMARK   96  A    between atoms: _214  and  _215
REMARK   97  A    between atoms: _214  and  _217
REMARK   98  A    between atoms: _217  and  _218
REMARK   99  A    between atoms: _221  and  _223
REMARK  100  A    between atoms: _223  and  _224
REMARK  101  A    between atoms: _223  and  _226
REMARK  102  A    between atoms: _226  and  _227
REMARK  103  A    between atoms: _230  and  _232
REMARK  104  A    between atoms: _232  and  _233
REMARK  105  A    between atoms: _232  and  _235
REMARK  106  A    between atoms: _235  and  _236
REMARK  107  A    between atoms: _239  and  _241
REMARK  108  A    between atoms: _241  and  _242
REMARK  109  A    between atoms: _241  and  _244
REMARK  110  A    between atoms: _244  and  _245
REMARK  111  A    between atoms: _250  and  _252
REMARK  112  A    between atoms: _252  and  _253
REMARK  113  A    between atoms: _252  and  _255
REMARK  114  A    between atoms: _255  and  _256
REMARK  115  A    between atoms: _259  and  _261
REMARK  116  A    between atoms: _261  and  _262
REMARK  117  A    between atoms: _264  and  _266
REMARK  118  A    between atoms: _266  and  _267
REMARK  119  A    between atoms: _266  and  _269
REMARK  120  A    between atoms: _269  and  _270
REMARK  121  A    between atoms: _273  and  _275
REMARK  122  A    between atoms: _275  and  _276
REMARK  123  A    between atoms: _275  and  _278
REMARK  124  A    between atoms: _278  and  _279
REMARK  125  A    between atoms: _282  and  _284
REMARK  126  A    between atoms: _284  and  _285
REMARK  127  A    between atoms: _288  and  _290
REMARK  128  A    between atoms: _290  and  _291
REMARK  129  A    between atoms: _290  and  _293
REMARK  130  A    between atoms: _293  and  _294
REMARK  131  A    between atoms: _294  and  _295
REMARK  132  A    between atoms: _295  and  _296
REMARK  133  A    between atoms: _296  and  _297
REMARK  134  A    between atoms: _301  and  _303
REMARK  135  A    between atoms: _303  and  _304
REMARK  136  A    between atoms: _303  and  _306
REMARK  137  A    between atoms: _306  and  _307
REMARK  138  A    between atoms: _310  and  _312
REMARK  139  A    between atoms: _312  and  _313
REMARK  140  A    between atoms: _315  and  _317
REMARK  141  A    between atoms: _317  and  _318
REMARK  142  A    between atoms: _317  and  _320
REMARK  143  A    between atoms: _323  and  _325
REMARK  144  A    between atoms: _325  and  _326
REMARK  145  A    between atoms: _328  and  _330
REMARK  146  A    between atoms: _330  and  _331
REMARK  147  A    between atoms: _330  and  _333
REMARK  148  A    between atoms: _333  and  _334
REMARK  149  A    between atoms: _340  and  _342
REMARK  150  A    between atoms: _342  and  _343
REMARK  151  A    between atoms: _342  and  _345
REMARK  152  A    between atoms: _345  and  _346
REMARK  153  A    between atoms: _351  and  _352
REMARK  154  A    between atoms: _354  and  _356
REMARK  155  A    between atoms: _356  and  _357
REMARK  156  A    between atoms: _356  and  _359
REMARK  157  A    between atoms: _359  and  _360
REMARK  158  A    between atoms: _365  and  _366
REMARK  159  A    between atoms: _368  and  _370
REMARK  160  A    between atoms: _370  and  _371
REMARK  161  A    between atoms: _370  and  _373
REMARK  162  A    between atoms: _376  and  _378
REMARK  163  A    between atoms: _378  and  _379
REMARK  164  A    between atoms: _378  and  _381
REMARK  165  A    between atoms: _381  and  _382
REMARK  166  A    between atoms: _385  and  _387
REMARK  167  A    between atoms: _387  and  _388
REMARK  168  A    between atoms: _387  and  _390
REMARK  169  A    between atoms: _393  and  _395
REMARK  170  A    between atoms: _395  and  _396
REMARK  171  A    between atoms: _395  and  _398
REMARK  172  A    between atoms: _398  and  _399
REMARK  173  A    between atoms: _402  and  _404
REMARK  174  A    between atoms: _404  and  _405
REMARK  175  A    between atoms: _404  and  _407
REMARK  176  A    between atoms: _407  and  _408
REMARK  177  A    between atoms: _411  and  _413
REMARK  178  A    between atoms: _413  and  _414
REMARK  179  A    between atoms: _413  and  _416
REMARK  180  A    between atoms: _416  and  _417
REMARK  181  A    between atoms: _417  and  _418
REMARK  182  A    between atoms: _418  and  _419
REMARK  183  A    between atoms: _419  and  _420
REMARK  184  A    between atoms: _424  and  _426
REMARK  185  A    between atoms: _426  and  _427
REMARK  186  A    between atoms: _426  and  _429
REMARK  187  A    between atoms: _429  and  _430
REMARK  188  A    between atoms: _435  and  _437
REMARK  189  A    between atoms: _437  and  _438
REMARK  190  A    between atoms: _441  and  _443
REMARK  191  A    between atoms: _443  and  _444
REMARK  192  A    between atoms: _443  and  _446
REMARK  193  A    between atoms: _446  and  _447
REMARK  194  A    between atoms: _457  and  _459
REMARK  195  A    between atoms: _459  and  _460
REMARK  196  A    between atoms: _459  and  _462
REMARK  197  A    between atoms: _462  and  _463
REMARK  198  A    between atoms: _463  and  _464
REMARK  199  A    between atoms: _467  and  _469
REMARK  200  A    between atoms: _469  and  _470
REMARK  201  A    between atoms: _469  and  _472
REMARK  202  A    between atoms: _472  and  _473
REMARK  203  A    between atoms: _475  and  _477
REMARK  204  A    between atoms: _477  and  _478
REMARK  205  A    between atoms: _477  and  _480
REMARK  206  A    between atoms: _480  and  _481
REMARK  207  A    between atoms: _487  and  _489
REMARK  208  A    between atoms: _489  and  _490
REMARK  209  A    between atoms: _489  and  _492
REMARK  210  A    between atoms: _492  and  _493
REMARK  211  A    between atoms: _496  and  _498
REMARK  212  A    between atoms: _498  and  _499
REMARK  213  A    between atoms: _498  and  _501
REMARK  214  A    between atoms: _504  and  _506
REMARK  215  A    between atoms: _506  and  _507
REMARK  216  A    between atoms: _509  and  _511
REMARK  217  A    between atoms: _511  and  _512
REMARK  218  A    between atoms: _511  and  _514
REMARK  219  A    between atoms: _514  and  _515
REMARK  220  A    between atoms: _518  and  _520
REMARK  221  A    between atoms: _520  and  _521
REMARK  222  A    between atoms: _520  and  _523
REMARK  223  A    between atoms: _523  and  _524
REMARK  224  A    between atoms: _524  and  _525
REMARK  225  A    between atoms: _525  and  _526
REMARK  226  A    between atoms: _526  and  _527
REMARK  227  A    between atoms: _531  and  _533
REMARK  228  A    between atoms: _533  and  _534
REMARK  229  A    between atoms: _533  and  _536
REMARK  230  A    between atoms: _539  and  _541
REMARK  231  A    between atoms: _541  and  _542
REMARK  232  A    between atoms: _541  and  _544
REMARK  233  A    between atoms: _544  and  _545
REMARK  234  A    between atoms: _550  and  _551
REMARK                            x       y       z     vdW  Elec       q    Type
REMARK                         _______ _______ _______ _____ _____    ______ ____
ROOT
ATOM      1  O   HOH     1       8.373   7.670  24.473  0.00  0.00    +0.000 OA
ENDROOT
TORSDOF 0
REMARK  Name = ../refined-set-2016/4cwn/4cwn_pocket.pdb
REMARK  234 active torsions:
REMARK  status: ('A' for Active; 'I' for Inactive)
REMARK    1  A    between atoms: _1  and  _3
REMARK    2  A    between atoms: _3  and  _4
REMARK    3  A    between atoms: _3  and  _6
REMARK    4  A    between atoms: _6  and  _7
REMARK    5  A    between atoms: _13  and  _15
REMARK    6  A    between atoms: _15  and  _16
REMARK    7  A    between atoms: _15  and  _18
REMARK    8  A    between atoms: _18  and  _19
REMARK    9  A    between atoms: _22  and  _24
REMARK   10  A    between atoms: _24  and  _25
REMARK   11  A    between atoms: _24  and  _27
REMARK   12  A    between atoms: _27  and  _28
REMARK   13  A    between atoms: _31  and  _33
REMARK   14  A    between atoms: _33  and  _34
REMARK   15  A    between atoms: _33  and  _36
REMARK   16  A    between atoms: _36  and  _37
REMARK   17  A    between atoms: _37  and  _38
REMARK   18  A    between atoms: _41  and  _43
REMARK   19  A    between atoms: _43  and  _44
REMARK   20  A    between atoms: _43  and  _46
REMARK   21  A    between atoms: _46  and  _47
REMARK   22  A    between atoms: _50  and  _52
REMARK   23  A    between atoms: _52  and  _53
REMARK   24  A    between atoms: _52  and  _55
REMARK   25  A    between atoms: _55  and  _56
REMARK   26  A    between atoms: _59  and  _61
REMARK   27  A    between atoms: _61  and  _62
REMARK   28  A    between atoms: _61  and  _64
REMARK   29  A    between atoms: _64  and  _65
REMARK   30  A    between atoms: _67  and  _69
REMARK   31  A    between atoms: _69  and  _70
REMARK   32  A    between atoms: _69  and  _72
REMARK   33  A    between atoms: _72  and  _73
REMARK   34  A    between atoms: _78  and  _80
REMARK   35  A    between atoms: _80  and  _81
REMARK   36  A    between atoms: _80  and  _83
REMARK   37  A    between atoms: _83  and  _84
REMARK   38  A    between atoms: _86  and  _88
REMARK   39  A    between atoms: _88  and  _89
REMARK   40  A    between atoms: _88  and  _91
REMARK   41  A    between atoms: _91  and  _92
REMARK   42  A    between atoms: _94  and  _96
REMARK   43  A    between atoms: _96  and  _97
REMARK   44  A    between atoms: _96  and  _99
REMARK   45  A    between atoms: _99  and  _100
REMARK   46  A    between atoms: _103  and  _105
REMARK   47  A    between atoms: _105  and  _106
REMARK   48  A    between atoms: _109  and  _111
REMARK   49  A    between atoms: _111  and  _112
REMARK   50  A    between atoms: _111  and  _114
REMARK   51  A    between atoms: _114  and  _115
REMARK   52  A    between atoms: _118  and  _120
REMARK   53  A    between atoms: _120  and  _121
REMARK   54  A    between atoms: _120  and  _123
REMARK   55  A    between atoms: _123  and  _124
REMARK   56  A    between atoms: _124  and  _125
REMARK   57  A    between atoms: _125  and  _126
REMARK   58  A    between atoms: _126  and  _127
REMARK   59  A    between atoms: _131  and  _133
REMARK   60  A    between atoms: _133  and  _134
REMARK   61  A    between atoms: _133  and  _136
REMARK   62  A    between atoms: _136  and  _137
REMARK   63  A    between atoms: _140  and  _142
REMARK   64  A    between atoms: _142  and  _143
REMARK   65  A    between atoms: _142  and  _145
REMARK   66  A    between atoms: _145  and  _146
REMARK   67  A    between atoms: _149  and  _151
REMARK   68  A    between atoms: _151  and  _152
REMARK   69  A    between atoms: _151  and  _154
REMARK   70  A    between atoms: _157  and  _159
REMARK   71  A    between atoms: _159  and  _160
REMARK   72  A    between atoms: _159  and  _162
REMARK   73  A    between atoms: _162  and  _163
REMARK   74  A    between atoms: _166  and  _168
REMARK   75  A    between atoms: _168  and  _169
REMARK   76  A    between atoms: _168  and  _171
REMARK   77  A    between atoms: _171  and  _172
REMARK   78  A    between atoms: _175  and  _177
REMARK   79  A    between atoms: _177  and  _178
REMARK   80  A    between atoms: _180  and  _182
REMARK   81  A    between atoms: _182  and  _183
REMARK   82  A    between atoms: _182  and  _185
REMARK   83  A    between atoms: _185  and  _186
REMARK   84  A    between atoms: _189  and  _191
REMARK   85  A    between atoms: _191  and  _192
REMARK   86  A    between atoms: _194  and  _196
REMARK   87  A    between atoms: _196  and  _197
REMARK   88  A    between atoms: _196  and  _199
REMARK   89  A    between atoms: _199  and  _200
REMARK   90  A    between atoms: _200  and  _201
REMARK   91  A    between atoms: _203  and  _205
REMARK   92  A    between atoms: _205  and  _206
REMARK   93  A    between atoms: _205  and  _208
REMARK   94  A    between atoms: _208  and  _209
REMARK   95  A    between atoms: _212  and  _214
REMARK   96  A    between atoms: _214  and  _215
REMARK   97  A    between atoms: _214  and  _217
REMARK   98  A    between atoms: _217  and  _218
REMARK   99  A    between atoms: _221  and  _223
REMARK  100  A    between atoms: _223  and  _224
REMARK  101  A    between atoms: _223  and  _226
REMARK  102  A    between atoms: _226  and  _227
REMARK  103  A    between atoms: _230  and  _232
REMARK  104  A    between atoms: _232  and  _233
REMARK  105  A    between atoms: _232  and  _235
REMARK  106  A    between atoms: _235  and  _236
REMARK  107  A    between atoms: _239  and  _241
REMARK  108  A    between atoms: _241  and  _242
REMARK  109  A    between atoms: _241  and  _244
REMARK  110  A    between atoms: _244  and  _245
REMARK  111  A    between atoms: _250  and  _252
REMARK  112  A    between atoms: _252  and  _253
REMARK  113  A    between atoms: _252  and  _255
REMARK  114  A    between atoms: _255  and  _256
REMARK  115  A    between atoms: _259  and  _261
REMARK  116  A    between atoms: _261  and  _262
REMARK  117  A    between atoms: _264  and  _266
REMARK  118  A    between atoms: _266  and  _267
REMARK  119  A    between atoms: _266  and  _269
REMARK  120  A    between atoms: _269  and  _270
REMARK  121  A    between atoms: _273  and  _275
REMARK  122  A    between atoms: _275  and  _276
REMARK  123  A    between atoms: _275  and  _278
REMARK  124  A    between atoms: _278  and  _279
REMARK  125  A    between atoms: _282  and  _284
REMARK  126  A    between atoms: _284  and  _285
REMARK  127  A    between atoms: _288  and  _290
REMARK  128  A    between atoms: _290  and  _291
REMARK  129  A    between atoms: _290  and  _293
REMARK  130  A    between atoms: _293  and  _294
REMARK  131  A    between atoms: _294  and  _295
REMARK  132  A    between atoms: _295  and  _296
REMARK  133  A    between atoms: _296  and  _297
REMARK  134  A    between atoms: _301  and  _303
REMARK  135  A    between atoms: _303  and  _304
REMARK  136  A    between atoms: _303  and  _306
REMARK  137  A    between atoms: _306  and  _307
REMARK  138  A    between atoms: _310  and  _312
REMARK  139  A    between atoms: _312  and  _313
REMARK  140  A    between atoms: _315  and  _317
REMARK  141  A    between atoms: _317  and  _318
REMARK  142  A    between atoms: _317  and  _320
REMARK  143  A    between atoms: _323  and  _325
REMARK  144  A    between atoms: _325  and  _326
REMARK  145  A    between atoms: _328  and  _330
REMARK  146  A    between atoms: _330  and  _331
REMARK  147  A    between atoms: _330  and  _333
REMARK  148  A    between atoms: _333  and  _334
REMARK  149  A    between atoms: _340  and  _342
REMARK  150  A    between atoms: _342  and  _343
REMARK  151  A    between atoms: _342  and  _345
REMARK  152  A    between atoms: _345  and  _346
REMARK  153  A    between atoms: _351  and  _352
REMARK  154  A    between atoms: _354  and  _356
REMARK  155  A    between atoms: _356  and  _357
REMARK  156  A    between atoms: _356  and  _359
REMARK  157  A    between atoms: _359  and  _360
REMARK  158  A    between atoms: _365  and  _366
REMARK  159  A    between atoms: _368  and  _370
REMARK  160  A    between atoms: _370  and  _371
REMARK  161  A    between atoms: _370  and  _373
REMARK  162  A    between atoms: _376  and  _378
REMARK  163  A    between atoms: _378  and  _379
REMARK  164  A    between atoms: _378  and  _381
REMARK  165  A    between atoms: _381  and  _382
REMARK  166  A    between atoms: _385  and  _387
REMARK  167  A    between atoms: _387  and  _388
REMARK  168  A    between atoms: _387  and  _390
REMARK  169  A    between atoms: _393  and  _395
REMARK  170  A    between atoms: _395  and  _396
REMARK  171  A    between atoms: _395  and  _398
REMARK  172  A    between atoms: _398  and  _399
REMARK  173  A    between atoms: _402  and  _404
REMARK  174  A    between atoms: _404  and  _405
REMARK  175  A    between atoms: _404  and  _407
REMARK  176  A    between atoms: _407  and  _408
REMARK  177  A    between atoms: _411  and  _413
REMARK  178  A    between atoms: _413  and  _414
REMARK  179  A    between atoms: _413  and  _416
REMARK  180  A    between atoms: _416  and  _417
REMARK  181  A    between atoms: _417  and  _418
REMARK  182  A    between atoms: _418  and  _419
REMARK  183  A    between atoms: _419  and  _420
REMARK  184  A    between atoms: _424  and  _426
REMARK  185  A    between atoms: _426  and  _427
REMARK  186  A    between atoms: _426  and  _429
REMARK  187  A    between atoms: _429  and  _430
REMARK  188  A    between atoms: _435  and  _437
REMARK  189  A    between atoms: _437  and  _438
REMARK  190  A    between atoms: _441  and  _443
REMARK  191  A    between atoms: _443  and  _444
REMARK  192  A    between atoms: _443  and  _446
REMARK  193  A    between atoms: _446  and  _447
REMARK  194  A    between atoms: _457  and  _459
REMARK  195  A    between atoms: _459  and  _460
REMARK  196  A    between atoms: _459  and  _462
REMARK  197  A    between atoms: _462  and  _463
REMARK  198  A    between atoms: _463  and  _464
REMARK  199  A    between atoms: _467  and  _469
REMARK  200  A    between atoms: _469  and  _470
REMARK  201  A    between atoms: _469  and  _472
REMARK  202  A    between atoms: _472  and  _473
REMARK  203  A    between atoms: _475  and  _477
REMARK  204  A    between atoms: _477  and  _478
REMARK  205  A    between atoms: _477  and  _480
REMARK  206  A    between atoms: _480  and  _481
REMARK  207  A    between atoms: _487  and  _489
REMARK  208  A    between atoms: _489  and  _490
REMARK  209  A    between atoms: _489  and  _492
REMARK  210  A    between atoms: _492  and  _493
REMARK  211  A    between atoms: _496  and  _498
REMARK  212  A    between atoms: _498  and  _499
REMARK  213  A    between atoms: _498  and  _501
REMARK  214  A    between atoms: _504  and  _506
REMARK  215  A    between atoms: _506  and  _507
REMARK  216  A    between atoms: _509  and  _511
REMARK  217  A    between atoms: _511  and  _512
REMARK  218  A    between atoms: _511  and  _514
REMARK  219  A    between atoms: _514  and  _515
REMARK  220  A    between atoms: _518  and  _520
REMARK  221  A    between atoms: _520  and  _521
REMARK  222  A    between atoms: _520  and  _523
REMARK  223  A    between atoms: _523  and  _524
REMARK  224  A    between atoms: _524  and  _525
REMARK  225  A    between atoms: _525  and  _526
REMARK  226  A    between atoms: _526  and  _527
REMARK  227  A    between atoms: _531  and  _533
REMARK  228  A    between atoms: _533  and  _534
REMARK  229  A    between atoms: _533  and  _536
REMARK  230  A    between atoms: _539  and  _541
REMARK  231  A    between atoms: _541  and  _542
REMARK  232  A    between atoms: _541  and  _544
REMARK  233  A    between atoms: _544  and  _545
REMARK  234  A    between atoms: _550  and  _551
REMARK                            x       y       z     vdW  Elec       q    Type
REMARK                         _______ _______ _______ _____ _____    ______ ____
ROOT
ATOM      1  O   HOH     1       8.997   5.806  22.557  0.00  0.00    +0.000 OA
ENDROOT
TORSDOF 0
REMARK  Name = ../refined-set-2016/4cwn/4cwn_pocket.pdb
REMARK  234 active torsions:
REMARK  status: ('A' for Active; 'I' for Inactive)
REMARK    1  A    between atoms: _1  and  _3
REMARK    2  A    between atoms: _3  and  _4
REMARK    3  A    between atoms: _3  and  _6
REMARK    4  A    between atoms: _6  and  _7
REMARK    5  A    between atoms: _13  and  _15
REMARK    6  A    between atoms: _15  and  _16
REMARK    7  A    between atoms: _15  and  _18
REMARK    8  A    between atoms: _18  and  _19
REMARK    9  A    between atoms: _22  and  _24
REMARK   10  A    between atoms: _24  and  _25
REMARK   11  A    between atoms: _24  and  _27
REMARK   12  A    between atoms: _27  and  _28
REMARK   13  A    between atoms: _31  and  _33
REMARK   14  A    between atoms: _33  and  _34
REMARK   15  A    between atoms: _33  and  _36
REMARK   16  A    between atoms: _36  and  _37
REMARK   17  A    between atoms: _37  and  _38
REMARK   18  A    between atoms: _41  and  _43
REMARK   19  A    between atoms: _43  and  _44
REMARK   20  A    between atoms: _43  and  _46
REMARK   21  A    between atoms: _46  and  _47
REMARK   22  A    between atoms: _50  and  _52
REMARK   23  A    between atoms: _52  and  _53
REMARK   24  A    between atoms: _52  and  _55
REMARK   25  A    between atoms: _55  and  _56
REMARK   26  A    between atoms: _59  and  _61
REMARK   27  A    between atoms: _61  and  _62
REMARK   28  A    between atoms: _61  and  _64
REMARK   29  A    between atoms: _64  and  _65
REMARK   30  A    between atoms: _67  and  _69
REMARK   31  A    between atoms: _69  and  _70
REMARK   32  A    between atoms: _69  and  _72
REMARK   33  A    between atoms: _72  and  _73
REMARK   34  A    between atoms: _78  and  _80
REMARK   35  A    between atoms: _80  and  _81
REMARK   36  A    between atoms: _80  and  _83
REMARK   37  A    between atoms: _83  and  _84
REMARK   38  A    between atoms: _86  and  _88
REMARK   39  A    between atoms: _88  and  _89
REMARK   40  A    between atoms: _88  and  _91
REMARK   41  A    between atoms: _91  and  _92
REMARK   42  A    between atoms: _94  and  _96
REMARK   43  A    between atoms: _96  and  _97
REMARK   44  A    between atoms: _96  and  _99
REMARK   45  A    between atoms: _99  and  _100
REMARK   46  A    between atoms: _103  and  _105
REMARK   47  A    between atoms: _105  and  _106
REMARK   48  A    between atoms: _109  and  _111
REMARK   49  A    between atoms: _111  and  _112
REMARK   50  A    between atoms: _111  and  _114
REMARK   51  A    between atoms: _114  and  _115
REMARK   52  A    between atoms: _118  and  _120
REMARK   53  A    between atoms: _120  and  _121
REMARK   54  A    between atoms: _120  and  _123
REMARK   55  A    between atoms: _123  and  _124
REMARK   56  A    between atoms: _124  and  _125
REMARK   57  A    between atoms: _125  and  _126
REMARK   58  A    between atoms: _126  and  _127
REMARK   59  A    between atoms: _131  and  _133
REMARK   60  A    between atoms: _133  and  _134
REMARK   61  A    between atoms: _133  and  _136
REMARK   62  A    between atoms: _136  and  _137
REMARK   63  A    between atoms: _140  and  _142
REMARK   64  A    between atoms: _142  and  _143
REMARK   65  A    between atoms: _142  and  _145
REMARK   66  A    between atoms: _145  and  _146
REMARK   67  A    between atoms: _149  and  _151
REMARK   68  A    between atoms: _151  and  _152
REMARK   69  A    between atoms: _151  and  _154
REMARK   70  A    between atoms: _157  and  _159
REMARK   71  A    between atoms: _159  and  _160
REMARK   72  A    between atoms: _159  and  _162
REMARK   73  A    between atoms: _162  and  _163
REMARK   74  A    between atoms: _166  and  _168
REMARK   75  A    between atoms: _168  and  _169
REMARK   76  A    between atoms: _168  and  _171
REMARK   77  A    between atoms: _171  and  _172
REMARK   78  A    between atoms: _175  and  _177
REMARK   79  A    between atoms: _177  and  _178
REMARK   80  A    between atoms: _180  and  _182
REMARK   81  A    between atoms: _182  and  _183
REMARK   82  A    between atoms: _182  and  _185
REMARK   83  A    between atoms: _185  and  _186
REMARK   84  A    between atoms: _189  and  _191
REMARK   85  A    between atoms: _191  and  _192
REMARK   86  A    between atoms: _194  and  _196
REMARK   87  A    between atoms: _196  and  _197
REMARK   88  A    between atoms: _196  and  _199
REMARK   89  A    between atoms: _199  and  _200
REMARK   90  A    between atoms: _200  and  _201
REMARK   91  A    between atoms: _203  and  _205
REMARK   92  A    between atoms: _205  and  _206
REMARK   93  A    between atoms: _205  and  _208
REMARK   94  A    between atoms: _208  and  _209
REMARK   95  A    between atoms: _212  and  _214
REMARK   96  A    between atoms: _214  and  _215
REMARK   97  A    between atoms: _214  and  _217
REMARK   98  A    between atoms: _217  and  _218
REMARK   99  A    between atoms: _221  and  _223
REMARK  100  A    between atoms: _223  and  _224
REMARK  101  A    between atoms: _223  and  _226
REMARK  102  A    between atoms: _226  and  _227
REMARK  103  A    between atoms: _230  and  _232
REMARK  104  A    between atoms: _232  and  _233
REMARK  105  A    between atoms: _232  and  _235
REMARK  106  A    between atoms: _235  and  _236
REMARK  107  A    between atoms: _239  and  _241
REMARK  108  A    between atoms: _241  and  _242
REMARK  109  A    between atoms: _241  and  _244
REMARK  110  A    between atoms: _244  and  _245
REMARK  111  A    between atoms: _250  and  _252
REMARK  112  A    between atoms: _252  and  _253
REMARK  113  A    between atoms: _252  and  _255
REMARK  114  A    between atoms: _255  and  _256
REMARK  115  A    between atoms: _259  and  _261
REMARK  116  A    between atoms: _261  and  _262
REMARK  117  A    between atoms: _264  and  _266
REMARK  118  A    between atoms: _266  and  _267
REMARK  119  A    between atoms: _266  and  _269
REMARK  120  A    between atoms: _269  and  _270
REMARK  121  A    between atoms: _273  and  _275
REMARK  122  A    between atoms: _275  and  _276
REMARK  123  A    between atoms: _275  and  _278
REMARK  124  A    between atoms: _278  and  _279
REMARK  125  A    between atoms: _282  and  _284
REMARK  126  A    between atoms: _284  and  _285
REMARK  127  A    between atoms: _288  and  _290
REMARK  128  A    between atoms: _290  and  _291
REMARK  129  A    between atoms: _290  and  _293
REMARK  130  A    between atoms: _293  and  _294
REMARK  131  A    between atoms: _294  and  _295
REMARK  132  A    between atoms: _295  and  _296
REMARK  133  A    between atoms: _296  and  _297
REMARK  134  A    between atoms: _301  and  _303
REMARK  135  A    between atoms: _303  and  _304
REMARK  136  A    between atoms: _303  and  _306
REMARK  137  A    between atoms: _306  and  _307
REMARK  138  A    between atoms: _310  and  _312
REMARK  139  A    between atoms: _312  and  _313
REMARK  140  A    between atoms: _315  and  _317
REMARK  141  A    between atoms: _317  and  _318
REMARK  142  A    between atoms: _317  and  _320
REMARK  143  A    between atoms: _323  and  _325
REMARK  144  A    between atoms: _325  and  _326
REMARK  145  A    between atoms: _328  and  _330
REMARK  146  A    between atoms: _330  and  _331
REMARK  147  A    between atoms: _330  and  _333
REMARK  148  A    between atoms: _333  and  _334
REMARK  149  A    between atoms: _340  and  _342
REMARK  150  A    between atoms: _342  and  _343
REMARK  151  A    between atoms: _342  and  _345
REMARK  152  A    between atoms: _345  and  _346
REMARK  153  A    between atoms: _351  and  _352
REMARK  154  A    between atoms: _354  and  _356
REMARK  155  A    between atoms: _356  and  _357
REMARK  156  A    between atoms: _356  and  _359
REMARK  157  A    between atoms: _359  and  _360
REMARK  158  A    between atoms: _365  and  _366
REMARK  159  A    between atoms: _368  and  _370
REMARK  160  A    between atoms: _370  and  _371
REMARK  161  A    between atoms: _370  and  _373
REMARK  162  A    between atoms: _376  and  _378
REMARK  163  A    between atoms: _378  and  _379
REMARK  164  A    between atoms: _378  and  _381
REMARK  165  A    between atoms: _381  and  _382
REMARK  166  A    between atoms: _385  and  _387
REMARK  167  A    between atoms: _387  and  _388
REMARK  168  A    between atoms: _387  and  _390
REMARK  169  A    between atoms: _393  and  _395
REMARK  170  A    between atoms: _395  and  _396
REMARK  171  A    between atoms: _395  and  _398
REMARK  172  A    between atoms: _398  and  _399
REMARK  173  A    between atoms: _402  and  _404
REMARK  174  A    between atoms: _404  and  _405
REMARK  175  A    between atoms: _404  and  _407
REMARK  176  A    between atoms: _407  and  _408
REMARK  177  A    between atoms: _411  and  _413
REMARK  178  A    between atoms: _413  and  _414
REMARK  179  A    between atoms: _413  and  _416
REMARK  180  A    between atoms: _416  and  _417
REMARK  181  A    between atoms: _417  and  _418
REMARK  182  A    between atoms: _418  and  _419
REMARK  183  A    between atoms: _419  and  _420
REMARK  184  A    between atoms: _424  and  _426
REMARK  185  A    between atoms: _426  and  _427
REMARK  186  A    between atoms: _426  and  _429
REMARK  187  A    between atoms: _429  and  _430
REMARK  188  A    between atoms: _435  and  _437
REMARK  189  A    between atoms: _437  and  _438
REMARK  190  A    between atoms: _441  and  _443
REMARK  191  A    between atoms: _443  and  _444
REMARK  192  A    between atoms: _443  and  _446
REMARK  193  A    between atoms: _446  and  _447
REMARK  194  A    between atoms: _457  and  _459
REMARK  195  A    between atoms: _459  and  _460
REMARK  196  A    between atoms: _459  and  _462
REMARK  197  A    between atoms: _462  and  _463
REMARK  198  A    between atoms: _463  and  _464
REMARK  199  A    between atoms: _467  and  _469
REMARK  200  A    between atoms: _469  and  _470
REMARK  201  A    between atoms: _469  and  _472
REMARK  202  A    between atoms: _472  and  _473
REMARK  203  A    between atoms: _475  and  _477
REMARK  204  A    between atoms: _477  and  _478
REMARK  205  A    between atoms: _477  and  _480
REMARK  206  A    between atoms: _480  and  _481
REMARK  207  A    between atoms: _487  and  _489
REMARK  208  A    between atoms: _489  and  _490
REMARK  209  A    between atoms: _489  and  _492
REMARK  210  A    between atoms: _492  and  _493
REMARK  211  A    between atoms: _496  and  _498
REMARK  212  A    between atoms: _498  and  _499
REMARK  213  A    between atoms: _498  and  _501
REMARK  214  A    between atoms: _504  and  _506
REMARK  215  A    between atoms: _506  and  _507
REMARK  216  A    between atoms: _509  and  _511
REMARK  217  A    between atoms: _511  and  _512
REMARK  218  A    between atoms: _511  and  _514
REMARK  219  A    between atoms: _514  and  _515
REMARK  220  A    between atoms: _518  and  _520
REMARK  221  A    between atoms: _520  and  _521
REMARK  222  A    between atoms: _520  and  _523
REMARK  223  A    between atoms: _523  and  _524
REMARK  224  A    between atoms: _524  and  _525
REMARK  225  A    between atoms: _525  and  _526
REMARK  226  A    between atoms: _526  and  _527
REMARK  227  A    between atoms: _531  and  _533
REMARK  228  A    between atoms: _533  and  _534
REMARK  229  A    between atoms: _533  and  _536
REMARK  230  A    between atoms: _539  and  _541
REMARK  231  A    between atoms: _541  and  _542
REMARK  232  A    between atoms: _541  and  _544
REMARK  233  A    between atoms: _544  and  _545
REMARK  234  A    between atoms: _550  and  _551
REMARK                            x       y       z     vdW  Elec       q    Type
REMARK                         _______ _______ _______ _____ _____    ______ ____
ROOT
ATOM      1  O   HOH     1      11.482  14.484  24.953  0.00  0.00    +0.000 OA
ENDROOT
TORSDOF 0
REMARK  Name = ../refined-set-2016/4cwn/4cwn_pocket.pdb
REMARK  234 active torsions:
REMARK  status: ('A' for Active; 'I' for Inactive)
REMARK    1  A    between atoms: _1  and  _3
REMARK    2  A    between atoms: _3  and  _4
REMARK    3  A    between atoms: _3  and  _6
REMARK    4  A    between atoms: _6  and  _7
REMARK    5  A    between atoms: _13  and  _15
REMARK    6  A    between atoms: _15  and  _16
REMARK    7  A    between atoms: _15  and  _18
REMARK    8  A    between atoms: _18  and  _19
REMARK    9  A    between atoms: _22  and  _24
REMARK   10  A    between atoms: _24  and  _25
REMARK   11  A    between atoms: _24  and  _27
REMARK   12  A    between atoms: _27  and  _28
REMARK   13  A    between atoms: _31  and  _33
REMARK   14  A    between atoms: _33  and  _34
REMARK   15  A    between atoms: _33  and  _36
REMARK   16  A    between atoms: _36  and  _37
REMARK   17  A    between atoms: _37  and  _38
REMARK   18  A    between atoms: _41  and  _43
REMARK   19  A    between atoms: _43  and  _44
REMARK   20  A    between atoms: _43  and  _46
REMARK   21  A    between atoms: _46  and  _47
REMARK   22  A    between atoms: _50  and  _52
REMARK   23  A    between atoms: _52  and  _53
REMARK   24  A    between atoms: _52  and  _55
REMARK   25  A    between atoms: _55  and  _56
REMARK   26  A    between atoms: _59  and  _61
REMARK   27  A    between atoms: _61  and  _62
REMARK   28  A    between atoms: _61  and  _64
REMARK   29  A    between atoms: _64  and  _65
REMARK   30  A    between atoms: _67  and  _69
REMARK   31  A    between atoms: _69  and  _70
REMARK   32  A    between atoms: _69  and  _72
REMARK   33  A    between atoms: _72  and  _73
REMARK   34  A    between atoms: _78  and  _80
REMARK   35  A    between atoms: _80  and  _81
REMARK   36  A    between atoms: _80  and  _83
REMARK   37  A    between atoms: _83  and  _84
REMARK   38  A    between atoms: _86  and  _88
REMARK   39  A    between atoms: _88  and  _89
REMARK   40  A    between atoms: _88  and  _91
REMARK   41  A    between atoms: _91  and  _92
REMARK   42  A    between atoms: _94  and  _96
REMARK   43  A    between atoms: _96  and  _97
REMARK   44  A    between atoms: _96  and  _99
REMARK   45  A    between atoms: _99  and  _100
REMARK   46  A    between atoms: _103  and  _105
REMARK   47  A    between atoms: _105  and  _106
REMARK   48  A    between atoms: _109  and  _111
REMARK   49  A    between atoms: _111  and  _112
REMARK   50  A    between atoms: _111  and  _114
REMARK   51  A    between atoms: _114  and  _115
REMARK   52  A    between atoms: _118  and  _120
REMARK   53  A    between atoms: _120  and  _121
REMARK   54  A    between atoms: _120  and  _123
REMARK   55  A    between atoms: _123  and  _124
REMARK   56  A    between atoms: _124  and  _125
REMARK   57  A    between atoms: _125  and  _126
REMARK   58  A    between atoms: _126  and  _127
REMARK   59  A    between atoms: _131  and  _133
REMARK   60  A    between atoms: _133  and  _134
REMARK   61  A    between atoms: _133  and  _136
REMARK   62  A    between atoms: _136  and  _137
REMARK   63  A    between atoms: _140  and  _142
REMARK   64  A    between atoms: _142  and  _143
REMARK   65  A    between atoms: _142  and  _145
REMARK   66  A    between atoms: _145  and  _146
REMARK   67  A    between atoms: _149  and  _151
REMARK   68  A    between atoms: _151  and  _152
REMARK   69  A    between atoms: _151  and  _154
REMARK   70  A    between atoms: _157  and  _159
REMARK   71  A    between atoms: _159  and  _160
REMARK   72  A    between atoms: _159  and  _162
REMARK   73  A    between atoms: _162  and  _163
REMARK   74  A    between atoms: _166  and  _168
REMARK   75  A    between atoms: _168  and  _169
REMARK   76  A    between atoms: _168  and  _171
REMARK   77  A    between atoms: _171  and  _172
REMARK   78  A    between atoms: _175  and  _177
REMARK   79  A    between atoms: _177  and  _178
REMARK   80  A    between atoms: _180  and  _182
REMARK   81  A    between atoms: _182  and  _183
REMARK   82  A    between atoms: _182  and  _185
REMARK   83  A    between atoms: _185  and  _186
REMARK   84  A    between atoms: _189  and  _191
REMARK   85  A    between atoms: _191  and  _192
REMARK   86  A    between atoms: _194  and  _196
REMARK   87  A    between atoms: _196  and  _197
REMARK   88  A    between atoms: _196  and  _199
REMARK   89  A    between atoms: _199  and  _200
REMARK   90  A    between atoms: _200  and  _201
REMARK   91  A    between atoms: _203  and  _205
REMARK   92  A    between atoms: _205  and  _206
REMARK   93  A    between atoms: _205  and  _208
REMARK   94  A    between atoms: _208  and  _209
REMARK   95  A    between atoms: _212  and  _214
REMARK   96  A    between atoms: _214  and  _215
REMARK   97  A    between atoms: _214  and  _217
REMARK   98  A    between atoms: _217  and  _218
REMARK   99  A    between atoms: _221  and  _223
REMARK  100  A    between atoms: _223  and  _224
REMARK  101  A    between atoms: _223  and  _226
REMARK  102  A    between atoms: _226  and  _227
REMARK  103  A    between atoms: _230  and  _232
REMARK  104  A    between atoms: _232  and  _233
REMARK  105  A    between atoms: _232  and  _235
REMARK  106  A    between atoms: _235  and  _236
REMARK  107  A    between atoms: _239  and  _241
REMARK  108  A    between atoms: _241  and  _242
REMARK  109  A    between atoms: _241  and  _244
REMARK  110  A    between atoms: _244  and  _245
REMARK  111  A    between atoms: _250  and  _252
REMARK  112  A    between atoms: _252  and  _253
REMARK  113  A    between atoms: _252  and  _255
REMARK  114  A    between atoms: _255  and  _256
REMARK  115  A    between atoms: _259  and  _261
REMARK  116  A    between atoms: _261  and  _262
REMARK  117  A    between atoms: _264  and  _266
REMARK  118  A    between atoms: _266  and  _267
REMARK  119  A    between atoms: _266  and  _269
REMARK  120  A    between atoms: _269  and  _270
REMARK  121  A    between atoms: _273  and  _275
REMARK  122  A    between atoms: _275  and  _276
REMARK  123  A    between atoms: _275  and  _278
REMARK  124  A    between atoms: _278  and  _279
REMARK  125  A    between atoms: _282  and  _284
REMARK  126  A    between atoms: _284  and  _285
REMARK  127  A    between atoms: _288  and  _290
REMARK  128  A    between atoms: _290  and  _291
REMARK  129  A    between atoms: _290  and  _293
REMARK  130  A    between atoms: _293  and  _294
REMARK  131  A    between atoms: _294  and  _295
REMARK  132  A    between atoms: _295  and  _296
REMARK  133  A    between atoms: _296  and  _297
REMARK  134  A    between atoms: _301  and  _303
REMARK  135  A    between atoms: _303  and  _304
REMARK  136  A    between atoms: _303  and  _306
REMARK  137  A    between atoms: _306  and  _307
REMARK  138  A    between atoms: _310  and  _312
REMARK  139  A    between atoms: _312  and  _313
REMARK  140  A    between atoms: _315  and  _317
REMARK  141  A    between atoms: _317  and  _318
REMARK  142  A    between atoms: _317  and  _320
REMARK  143  A    between atoms: _323  and  _325
REMARK  144  A    between atoms: _325  and  _326
REMARK  145  A    between atoms: _328  and  _330
REMARK  146  A    between atoms: _330  and  _331
REMARK  147  A    between atoms: _330  and  _333
REMARK  148  A    between atoms: _333  and  _334
REMARK  149  A    between atoms: _340  and  _342
REMARK  150  A    between atoms: _342  and  _343
REMARK  151  A    between atoms: _342  and  _345
REMARK  152  A    between atoms: _345  and  _346
REMARK  153  A    between atoms: _351  and  _352
REMARK  154  A    between atoms: _354  and  _356
REMARK  155  A    between atoms: _356  and  _357
REMARK  156  A    between atoms: _356  and  _359
REMARK  157  A    between atoms: _359  and  _360
REMARK  158  A    between atoms: _365  and  _366
REMARK  159  A    between atoms: _368  and  _370
REMARK  160  A    between atoms: _370  and  _371
REMARK  161  A    between atoms: _370  and  _373
REMARK  162  A    between atoms: _376  and  _378
REMARK  163  A    between atoms: _378  and  _379
REMARK  164  A    between atoms: _378  and  _381
REMARK  165  A    between atoms: _381  and  _382
REMARK  166  A    between atoms: _385  and  _387
REMARK  167  A    between atoms: _387  and  _388
REMARK  168  A    between atoms: _387  and  _390
REMARK  169  A    between atoms: _393  and  _395
REMARK  170  A    between atoms: _395  and  _396
REMARK  171  A    between atoms: _395  and  _398
REMARK  172  A    between atoms: _398  and  _399
REMARK  173  A    between atoms: _402  and  _404
REMARK  174  A    between atoms: _404  and  _405
REMARK  175  A    between atoms: _404  and  _407
REMARK  176  A    between atoms: _407  and  _408
REMARK  177  A    between atoms: _411  and  _413
REMARK  178  A    between atoms: _413  and  _414
REMARK  179  A    between atoms: _413  and  _416
REMARK  180  A    between atoms: _416  and  _417
REMARK  181  A    between atoms: _417  and  _418
REMARK  182  A    between atoms: _418  and  _419
REMARK  183  A    between atoms: _419  and  _420
REMARK  184  A    between atoms: _424  and  _426
REMARK  185  A    between atoms: _426  and  _427
REMARK  186  A    between atoms: _426  and  _429
REMARK  187  A    between atoms: _429  and  _430
REMARK  188  A    between atoms: _435  and  _437
REMARK  189  A    between atoms: _437  and  _438
REMARK  190  A    between atoms: _441  and  _443
REMARK  191  A    between atoms: _443  and  _444
REMARK  192  A    between atoms: _443  and  _446
REMARK  193  A    between atoms: _446  and  _447
REMARK  194  A    between atoms: _457  and  _459
REMARK  195  A    between atoms: _459  and  _460
REMARK  196  A    between atoms: _459  and  _462
REMARK  197  A    between atoms: _462  and  _463
REMARK  198  A    between atoms: _463  and  _464
REMARK  199  A    between atoms: _467  and  _469
REMARK  200  A    between atoms: _469  and  _470
REMARK  201  A    between atoms: _469  and  _472
REMARK  202  A    between atoms: _472  and  _473
REMARK  203  A    between atoms: _475  and  _477
REMARK  204  A    between atoms: _477  and  _478
REMARK  205  A    between atoms: _477  and  _480
REMARK  206  A    between atoms: _480  and  _481
REMARK  207  A    between atoms: _487  and  _489
REMARK  208  A    between atoms: _489  and  _490
REMARK  209  A    between atoms: _489  and  _492
REMARK  210  A    between atoms: _492  and  _493
REMARK  211  A    between atoms: _496  and  _498
REMARK  212  A    between atoms: _498  and  _499
REMARK  213  A    between atoms: _498  and  _501
REMARK  214  A    between atoms: _504  and  _506
REMARK  215  A    between atoms: _506  and  _507
REMARK  216  A    between atoms: _509  and  _511
REMARK  217  A    between atoms: _511  and  _512
REMARK  218  A    between atoms: _511  and  _514
REMARK  219  A    between atoms: _514  and  _515
REMARK  220  A    between atoms: _518  and  _520
REMARK  221  A    between atoms: _520  and  _521
REMARK  222  A    between atoms: _520  and  _523
REMARK  223  A    between atoms: _523  and  _524
REMARK  224  A    between atoms: _524  and  _525
REMARK  225  A    between atoms: _525  and  _526
REMARK  226  A    between atoms: _526  and  _527
REMARK  227  A    between atoms: _531  and  _533
REMARK  228  A    between atoms: _533  and  _534
REMARK  229  A    between atoms: _533  and  _536
REMARK  230  A    between atoms: _539  and  _541
REMARK  231  A    between atoms: _541  and  _542
REMARK  232  A    between atoms: _541  and  _544
REMARK  233  A    between atoms: _544  and  _545
REMARK  234  A    between atoms: _550  and  _551
REMARK                            x       y       z     vdW  Elec       q    Type
REMARK                         _______ _______ _______ _____ _____    ______ ____
ROOT
ATOM      1  O   HOH     1       0.412   5.580  34.525  0.00  0.00    +0.000 OA
ENDROOT
TORSDOF 0
REMARK  Name = ../refined-set-2016/4cwn/4cwn_pocket.pdb
REMARK  234 active torsions:
REMARK  status: ('A' for Active; 'I' for Inactive)
REMARK    1  A    between atoms: _1  and  _3
REMARK    2  A    between atoms: _3  and  _4
REMARK    3  A    between atoms: _3  and  _6
REMARK    4  A    between atoms: _6  and  _7
REMARK    5  A    between atoms: _13  and  _15
REMARK    6  A    between atoms: _15  and  _16
REMARK    7  A    between atoms: _15  and  _18
REMARK    8  A    between atoms: _18  and  _19
REMARK    9  A    between atoms: _22  and  _24
REMARK   10  A    between atoms: _24  and  _25
REMARK   11  A    between atoms: _24  and  _27
REMARK   12  A    between atoms: _27  and  _28
REMARK   13  A    between atoms: _31  and  _33
REMARK   14  A    between atoms: _33  and  _34
REMARK   15  A    between atoms: _33  and  _36
REMARK   16  A    between atoms: _36  and  _37
REMARK   17  A    between atoms: _37  and  _38
REMARK   18  A    between atoms: _41  and  _43
REMARK   19  A    between atoms: _43  and  _44
REMARK   20  A    between atoms: _43  and  _46
REMARK   21  A    between atoms: _46  and  _47
REMARK   22  A    between atoms: _50  and  _52
REMARK   23  A    between atoms: _52  and  _53
REMARK   24  A    between atoms: _52  and  _55
REMARK   25  A    between atoms: _55  and  _56
REMARK   26  A    between atoms: _59  and  _61
REMARK   27  A    between atoms: _61  and  _62
REMARK   28  A    between atoms: _61  and  _64
REMARK   29  A    between atoms: _64  and  _65
REMARK   30  A    between atoms: _67  and  _69
REMARK   31  A    between atoms: _69  and  _70
REMARK   32  A    between atoms: _69  and  _72
REMARK   33  A    between atoms: _72  and  _73
REMARK   34  A    between atoms: _78  and  _80
REMARK   35  A    between atoms: _80  and  _81
REMARK   36  A    between atoms: _80  and  _83
REMARK   37  A    between atoms: _83  and  _84
REMARK   38  A    between atoms: _86  and  _88
REMARK   39  A    between atoms: _88  and  _89
REMARK   40  A    between atoms: _88  and  _91
REMARK   41  A    between atoms: _91  and  _92
REMARK   42  A    between atoms: _94  and  _96
REMARK   43  A    between atoms: _96  and  _97
REMARK   44  A    between atoms: _96  and  _99
REMARK   45  A    between atoms: _99  and  _100
REMARK   46  A    between atoms: _103  and  _105
REMARK   47  A    between atoms: _105  and  _106
REMARK   48  A    between atoms: _109  and  _111
REMARK   49  A    between atoms: _111  and  _112
REMARK   50  A    between atoms: _111  and  _114
REMARK   51  A    between atoms: _114  and  _115
REMARK   52  A    between atoms: _118  and  _120
REMARK   53  A    between atoms: _120  and  _121
REMARK   54  A    between atoms: _120  and  _123
REMARK   55  A    between atoms: _123  and  _124
REMARK   56  A    between atoms: _124  and  _125
REMARK   57  A    between atoms: _125  and  _126
REMARK   58  A    between atoms: _126  and  _127
REMARK   59  A    between atoms: _131  and  _133
REMARK   60  A    between atoms: _133  and  _134
REMARK   61  A    between atoms: _133  and  _136
REMARK   62  A    between atoms: _136  and  _137
REMARK   63  A    between atoms: _140  and  _142
REMARK   64  A    between atoms: _142  and  _143
REMARK   65  A    between atoms: _142  and  _145
REMARK   66  A    between atoms: _145  and  _146
REMARK   67  A    between atoms: _149  and  _151
REMARK   68  A    between atoms: _151  and  _152
REMARK   69  A    between atoms: _151  and  _154
REMARK   70  A    between atoms: _157  and  _159
REMARK   71  A    between atoms: _159  and  _160
REMARK   72  A    between atoms: _159  and  _162
REMARK   73  A    between atoms: _162  and  _163
REMARK   74  A    between atoms: _166  and  _168
REMARK   75  A    between atoms: _168  and  _169
REMARK   76  A    between atoms: _168  and  _171
REMARK   77  A    between atoms: _171  and  _172
REMARK   78  A    between atoms: _175  and  _177
REMARK   79  A    between atoms: _177  and  _178
REMARK   80  A    between atoms: _180  and  _182
REMARK   81  A    between atoms: _182  and  _183
REMARK   82  A    between atoms: _182  and  _185
REMARK   83  A    between atoms: _185  and  _186
REMARK   84  A    between atoms: _189  and  _191
REMARK   85  A    between atoms: _191  and  _192
REMARK   86  A    between atoms: _194  and  _196
REMARK   87  A    between atoms: _196  and  _197
REMARK   88  A    between atoms: _196  and  _199
REMARK   89  A    between atoms: _199  and  _200
REMARK   90  A    between atoms: _200  and  _201
REMARK   91  A    between atoms: _203  and  _205
REMARK   92  A    between atoms: _205  and  _206
REMARK   93  A    between atoms: _205  and  _208
REMARK   94  A    between atoms: _208  and  _209
REMARK   95  A    between atoms: _212  and  _214
REMARK   96  A    between atoms: _214  and  _215
REMARK   97  A    between atoms: _214  and  _217
REMARK   98  A    between atoms: _217  and  _218
REMARK   99  A    between atoms: _221  and  _223
REMARK  100  A    between atoms: _223  and  _224
REMARK  101  A    between atoms: _223  and  _226
REMARK  102  A    between atoms: _226  and  _227
REMARK  103  A    between atoms: _230  and  _232
REMARK  104  A    between atoms: _232  and  _233
REMARK  105  A    between atoms: _232  and  _235
REMARK  106  A    between atoms: _235  and  _236
REMARK  107  A    between atoms: _239  and  _241
REMARK  108  A    between atoms: _241  and  _242
REMARK  109  A    between atoms: _241  and  _244
REMARK  110  A    between atoms: _244  and  _245
REMARK  111  A    between atoms: _250  and  _252
REMARK  112  A    between atoms: _252  and  _253
REMARK  113  A    between atoms: _252  and  _255
REMARK  114  A    between atoms: _255  and  _256
REMARK  115  A    between atoms: _259  and  _261
REMARK  116  A    between atoms: _261  and  _262
REMARK  117  A    between atoms: _264  and  _266
REMARK  118  A    between atoms: _266  and  _267
REMARK  119  A    between atoms: _266  and  _269
REMARK  120  A    between atoms: _269  and  _270
REMARK  121  A    between atoms: _273  and  _275
REMARK  122  A    between atoms: _275  and  _276
REMARK  123  A    between atoms: _275  and  _278
REMARK  124  A    between atoms: _278  and  _279
REMARK  125  A    between atoms: _282  and  _284
REMARK  126  A    between atoms: _284  and  _285
REMARK  127  A    between atoms: _288  and  _290
REMARK  128  A    between atoms: _290  and  _291
REMARK  129  A    between atoms: _290  and  _293
REMARK  130  A    between atoms: _293  and  _294
REMARK  131  A    between atoms: _294  and  _295
REMARK  132  A    between atoms: _295  and  _296
REMARK  133  A    between atoms: _296  and  _297
REMARK  134  A    between atoms: _301  and  _303
REMARK  135  A    between atoms: _303  and  _304
REMARK  136  A    between atoms: _303  and  _306
REMARK  137  A    between atoms: _306  and  _307
REMARK  138  A    between atoms: _310  and  _312
REMARK  139  A    between atoms: _312  and  _313
REMARK  140  A    between atoms: _315  and  _317
REMARK  141  A    between atoms: _317  and  _318
REMARK  142  A    between atoms: _317  and  _320
REMARK  143  A    between atoms: _323  and  _325
REMARK  144  A    between atoms: _325  and  _326
REMARK  145  A    between atoms: _328  and  _330
REMARK  146  A    between atoms: _330  and  _331
REMARK  147  A    between atoms: _330  and  _333
REMARK  148  A    between atoms: _333  and  _334
REMARK  149  A    between atoms: _340  and  _342
REMARK  150  A    between atoms: _342  and  _343
REMARK  151  A    between atoms: _342  and  _345
REMARK  152  A    between atoms: _345  and  _346
REMARK  153  A    between atoms: _351  and  _352
REMARK  154  A    between atoms: _354  and  _356
REMARK  155  A    between atoms: _356  and  _357
REMARK  156  A    between atoms: _356  and  _359
REMARK  157  A    between atoms: _359  and  _360
REMARK  158  A    between atoms: _365  and  _366
REMARK  159  A    between atoms: _368  and  _370
REMARK  160  A    between atoms: _370  and  _371
REMARK  161  A    between atoms: _370  and  _373
REMARK  162  A    between atoms: _376  and  _378
REMARK  163  A    between atoms: _378  and  _379
REMARK  164  A    between atoms: _378  and  _381
REMARK  165  A    between atoms: _381  and  _382
REMARK  166  A    between atoms: _385  and  _387
REMARK  167  A    between atoms: _387  and  _388
REMARK  168  A    between atoms: _387  and  _390
REMARK  169  A    between atoms: _393  and  _395
REMARK  170  A    between atoms: _395  and  _396
REMARK  171  A    between atoms: _395  and  _398
REMARK  172  A    between atoms: _398  and  _399
REMARK  173  A    between atoms: _402  and  _404
REMARK  174  A    between atoms: _404  and  _405
REMARK  175  A    between atoms: _404  and  _407
REMARK  176  A    between atoms: _407  and  _408
REMARK  177  A    between atoms: _411  and  _413
REMARK  178  A    between atoms: _413  and  _414
REMARK  179  A    between atoms: _413  and  _416
REMARK  180  A    between atoms: _416  and  _417
REMARK  181  A    between atoms: _417  and  _418
REMARK  182  A    between atoms: _418  and  _419
REMARK  183  A    between atoms: _419  and  _420
REMARK  184  A    between atoms: _424  and  _426
REMARK  185  A    between atoms: _426  and  _427
REMARK  186  A    between atoms: _426  and  _429
REMARK  187  A    between atoms: _429  and  _430
REMARK  188  A    between atoms: _435  and  _437
REMARK  189  A    between atoms: _437  and  _438
REMARK  190  A    between atoms: _441  and  _443
REMARK  191  A    between atoms: _443  and  _444
REMARK  192  A    between atoms: _443  and  _446
REMARK  193  A    between atoms: _446  and  _447
REMARK  194  A    between atoms: _457  and  _459
REMARK  195  A    between atoms: _459  and  _460
REMARK  196  A    between atoms: _459  and  _462
REMARK  197  A    between atoms: _462  and  _463
REMARK  198  A    between atoms: _463  and  _464
REMARK  199  A    between atoms: _467  and  _469
REMARK  200  A    between atoms: _469  and  _470
REMARK  201  A    between atoms: _469  and  _472
REMARK  202  A    between atoms: _472  and  _473
REMARK  203  A    between atoms: _475  and  _477
REMARK  204  A    between atoms: _477  and  _478
REMARK  205  A    between atoms: _477  and  _480
REMARK  206  A    between atoms: _480  and  _481
REMARK  207  A    between atoms: _487  and  _489
REMARK  208  A    between atoms: _489  and  _490
REMARK  209  A    between atoms: _489  and  _492
REMARK  210  A    between atoms: _492  and  _493
REMARK  211  A    between atoms: _496  and  _498
REMARK  212  A    between atoms: _498  and  _499
REMARK  213  A    between atoms: _498  and  _501
REMARK  214  A    between atoms: _504  and  _506
REMARK  215  A    between atoms: _506  and  _507
REMARK  216  A    between atoms: _509  and  _511
REMARK  217  A    between atoms: _511  and  _512
REMARK  218  A    between atoms: _511  and  _514
REMARK  219  A    between atoms: _514  and  _515
REMARK  220  A    between atoms: _518  and  _520
REMARK  221  A    between atoms: _520  and  _521
REMARK  222  A    between atoms: _520  and  _523
REMARK  223  A    between atoms: _523  and  _524
REMARK  224  A    between atoms: _524  and  _525
REMARK  225  A    between atoms: _525  and  _526
REMARK  226  A    between atoms: _526  and  _527
REMARK  227  A    between atoms: _531  and  _533
REMARK  228  A    between atoms: _533  and  _534
REMARK  229  A    between atoms: _533  and  _536
REMARK  230  A    between atoms: _539  and  _541
REMARK  231  A    between atoms: _541  and  _542
REMARK  232  A    between atoms: _541  and  _544
REMARK  233  A    between atoms: _544  and  _545
REMARK  234  A    between atoms: _550  and  _551
REMARK                            x       y       z     vdW  Elec       q    Type
REMARK                         _______ _______ _______ _____ _____    ______ ____
ROOT
ATOM      1  O   HOH     1       4.784   7.562  24.811  0.00  0.00    +0.000 OA
ENDROOT
TORSDOF 0
REMARK  Name = ../refined-set-2016/4cwn/4cwn_pocket.pdb
REMARK  234 active torsions:
REMARK  status: ('A' for Active; 'I' for Inactive)
REMARK    1  A    between atoms: _1  and  _3
REMARK    2  A    between atoms: _3  and  _4
REMARK    3  A    between atoms: _3  and  _6
REMARK    4  A    between atoms: _6  and  _7
REMARK    5  A    between atoms: _13  and  _15
REMARK    6  A    between atoms: _15  and  _16
REMARK    7  A    between atoms: _15  and  _18
REMARK    8  A    between atoms: _18  and  _19
REMARK    9  A    between atoms: _22  and  _24
REMARK   10  A    between atoms: _24  and  _25
REMARK   11  A    between atoms: _24  and  _27
REMARK   12  A    between atoms: _27  and  _28
REMARK   13  A    between atoms: _31  and  _33
REMARK   14  A    between atoms: _33  and  _34
REMARK   15  A    between atoms: _33  and  _36
REMARK   16  A    between atoms: _36  and  _37
REMARK   17  A    between atoms: _37  and  _38
REMARK   18  A    between atoms: _41  and  _43
REMARK   19  A    between atoms: _43  and  _44
REMARK   20  A    between atoms: _43  and  _46
REMARK   21  A    between atoms: _46  and  _47
REMARK   22  A    between atoms: _50  and  _52
REMARK   23  A    between atoms: _52  and  _53
REMARK   24  A    between atoms: _52  and  _55
REMARK   25  A    between atoms: _55  and  _56
REMARK   26  A    between atoms: _59  and  _61
REMARK   27  A    between atoms: _61  and  _62
REMARK   28  A    between atoms: _61  and  _64
REMARK   29  A    between atoms: _64  and  _65
REMARK   30  A    between atoms: _67  and  _69
REMARK   31  A    between atoms: _69  and  _70
REMARK   32  A    between atoms: _69  and  _72
REMARK   33  A    between atoms: _72  and  _73
REMARK   34  A    between atoms: _78  and  _80
REMARK   35  A    between atoms: _80  and  _81
REMARK   36  A    between atoms: _80  and  _83
REMARK   37  A    between atoms: _83  and  _84
REMARK   38  A    between atoms: _86  and  _88
REMARK   39  A    between atoms: _88  and  _89
REMARK   40  A    between atoms: _88  and  _91
REMARK   41  A    between atoms: _91  and  _92
REMARK   42  A    between atoms: _94  and  _96
REMARK   43  A    between atoms: _96  and  _97
REMARK   44  A    between atoms: _96  and  _99
REMARK   45  A    between atoms: _99  and  _100
REMARK   46  A    between atoms: _103  and  _105
REMARK   47  A    between atoms: _105  and  _106
REMARK   48  A    between atoms: _109  and  _111
REMARK   49  A    between atoms: _111  and  _112
REMARK   50  A    between atoms: _111  and  _114
REMARK   51  A    between atoms: _114  and  _115
REMARK   52  A    between atoms: _118  and  _120
REMARK   53  A    between atoms: _120  and  _121
REMARK   54  A    between atoms: _120  and  _123
REMARK   55  A    between atoms: _123  and  _124
REMARK   56  A    between atoms: _124  and  _125
REMARK   57  A    between atoms: _125  and  _126
REMARK   58  A    between atoms: _126  and  _127
REMARK   59  A    between atoms: _131  and  _133
REMARK   60  A    between atoms: _133  and  _134
REMARK   61  A    between atoms: _133  and  _136
REMARK   62  A    between atoms: _136  and  _137
REMARK   63  A    between atoms: _140  and  _142
REMARK   64  A    between atoms: _142  and  _143
REMARK   65  A    between atoms: _142  and  _145
REMARK   66  A    between atoms: _145  and  _146
REMARK   67  A    between atoms: _149  and  _151
REMARK   68  A    between atoms: _151  and  _152
REMARK   69  A    between atoms: _151  and  _154
REMARK   70  A    between atoms: _157  and  _159
REMARK   71  A    between atoms: _159  and  _160
REMARK   72  A    between atoms: _159  and  _162
REMARK   73  A    between atoms: _162  and  _163
REMARK   74  A    between atoms: _166  and  _168
REMARK   75  A    between atoms: _168  and  _169
REMARK   76  A    between atoms: _168  and  _171
REMARK   77  A    between atoms: _171  and  _172
REMARK   78  A    between atoms: _175  and  _177
REMARK   79  A    between atoms: _177  and  _178
REMARK   80  A    between atoms: _180  and  _182
REMARK   81  A    between atoms: _182  and  _183
REMARK   82  A    between atoms: _182  and  _185
REMARK   83  A    between atoms: _185  and  _186
REMARK   84  A    between atoms: _189  and  _191
REMARK   85  A    between atoms: _191  and  _192
REMARK   86  A    between atoms: _194  and  _196
REMARK   87  A    between atoms: _196  and  _197
REMARK   88  A    between atoms: _196  and  _199
REMARK   89  A    between atoms: _199  and  _200
REMARK   90  A    between atoms: _200  and  _201
REMARK   91  A    between atoms: _203  and  _205
REMARK   92  A    between atoms: _205  and  _206
REMARK   93  A    between atoms: _205  and  _208
REMARK   94  A    between atoms: _208  and  _209
REMARK   95  A    between atoms: _212  and  _214
REMARK   96  A    between atoms: _214  and  _215
REMARK   97  A    between atoms: _214  and  _217
REMARK   98  A    between atoms: _217  and  _218
REMARK   99  A    between atoms: _221  and  _223
REMARK  100  A    between atoms: _223  and  _224
REMARK  101  A    between atoms: _223  and  _226
REMARK  102  A    between atoms: _226  and  _227
REMARK  103  A    between atoms: _230  and  _232
REMARK  104  A    between atoms: _232  and  _233
REMARK  105  A    between atoms: _232  and  _235
REMARK  106  A    between atoms: _235  and  _236
REMARK  107  A    between atoms: _239  and  _241
REMARK  108  A    between atoms: _241  and  _242
REMARK  109  A    between atoms: _241  and  _244
REMARK  110  A    between atoms: _244  and  _245
REMARK  111  A    between atoms: _250  and  _252
REMARK  112  A    between atoms: _252  and  _253
REMARK  113  A    between atoms: _252  and  _255
REMARK  114  A    between atoms: _255  and  _256
REMARK  115  A    between atoms: _259  and  _261
REMARK  116  A    between atoms: _261  and  _262
REMARK  117  A    between atoms: _264  and  _266
REMARK  118  A    between atoms: _266  and  _267
REMARK  119  A    between atoms: _266  and  _269
REMARK  120  A    between atoms: _269  and  _270
REMARK  121  A    between atoms: _273  and  _275
REMARK  122  A    between atoms: _275  and  _276
REMARK  123  A    between atoms: _275  and  _278
REMARK  124  A    between atoms: _278  and  _279
REMARK  125  A    between atoms: _282  and  _284
REMARK  126  A    between atoms: _284  and  _285
REMARK  127  A    between atoms: _288  and  _290
REMARK  128  A    between atoms: _290  and  _291
REMARK  129  A    between atoms: _290  and  _293
REMARK  130  A    between atoms: _293  and  _294
REMARK  131  A    between atoms: _294  and  _295
REMARK  132  A    between atoms: _295  and  _296
REMARK  133  A    between atoms: _296  and  _297
REMARK  134  A    between atoms: _301  and  _303
REMARK  135  A    between atoms: _303  and  _304
REMARK  136  A    between atoms: _303  and  _306
REMARK  137  A    between atoms: _306  and  _307
REMARK  138  A    between atoms: _310  and  _312
REMARK  139  A    between atoms: _312  and  _313
REMARK  140  A    between atoms: _315  and  _317
REMARK  141  A    between atoms: _317  and  _318
REMARK  142  A    between atoms: _317  and  _320
REMARK  143  A    between atoms: _323  and  _325
REMARK  144  A    between atoms: _325  and  _326
REMARK  145  A    between atoms: _328  and  _330
REMARK  146  A    between atoms: _330  and  _331
REMARK  147  A    between atoms: _330  and  _333
REMARK  148  A    between atoms: _333  and  _334
REMARK  149  A    between atoms: _340  and  _342
REMARK  150  A    between atoms: _342  and  _343
REMARK  151  A    between atoms: _342  and  _345
REMARK  152  A    between atoms: _345  and  _346
REMARK  153  A    between atoms: _351  and  _352
REMARK  154  A    between atoms: _354  and  _356
REMARK  155  A    between atoms: _356  and  _357
REMARK  156  A    between atoms: _356  and  _359
REMARK  157  A    between atoms: _359  and  _360
REMARK  158  A    between atoms: _365  and  _366
REMARK  159  A    between atoms: _368  and  _370
REMARK  160  A    between atoms: _370  and  _371
REMARK  161  A    between atoms: _370  and  _373
REMARK  162  A    between atoms: _376  and  _378
REMARK  163  A    between atoms: _378  and  _379
REMARK  164  A    between atoms: _378  and  _381
REMARK  165  A    between atoms: _381  and  _382
REMARK  166  A    between atoms: _385  and  _387
REMARK  167  A    between atoms: _387  and  _388
REMARK  168  A    between atoms: _387  and  _390
REMARK  169  A    between atoms: _393  and  _395
REMARK  170  A    between atoms: _395  and  _396
REMARK  171  A    between atoms: _395  and  _398
REMARK  172  A    between atoms: _398  and  _399
REMARK  173  A    between atoms: _402  and  _404
REMARK  174  A    between atoms: _404  and  _405
REMARK  175  A    between atoms: _404  and  _407
REMARK  176  A    between atoms: _407  and  _408
REMARK  177  A    between atoms: _411  and  _413
REMARK  178  A    between atoms: _413  and  _414
REMARK  179  A    between atoms: _413  and  _416
REMARK  180  A    between atoms: _416  and  _417
REMARK  181  A    between atoms: _417  and  _418
REMARK  182  A    between atoms: _418  and  _419
REMARK  183  A    between atoms: _419  and  _420
REMARK  184  A    between atoms: _424  and  _426
REMARK  185  A    between atoms: _426  and  _427
REMARK  186  A    between atoms: _426  and  _429
REMARK  187  A    between atoms: _429  and  _430
REMARK  188  A    between atoms: _435  and  _437
REMARK  189  A    between atoms: _437  and  _438
REMARK  190  A    between atoms: _441  and  _443
REMARK  191  A    between atoms: _443  and  _444
REMARK  192  A    between atoms: _443  and  _446
REMARK  193  A    between atoms: _446  and  _447
REMARK  194  A    between atoms: _457  and  _459
REMARK  195  A    between atoms: _459  and  _460
REMARK  196  A    between atoms: _459  and  _462
REMARK  197  A    between atoms: _462  and  _463
REMARK  198  A    between atoms: _463  and  _464
REMARK  199  A    between atoms: _467  and  _469
REMARK  200  A    between atoms: _469  and  _470
REMARK  201  A    between atoms: _469  and  _472
REMARK  202  A    between atoms: _472  and  _473
REMARK  203  A    between atoms: _475  and  _477
REMARK  204  A    between atoms: _477  and  _478
REMARK  205  A    between atoms: _477  and  _480
REMARK  206  A    between atoms: _480  and  _481
REMARK  207  A    between atoms: _487  and  _489
REMARK  208  A    between atoms: _489  and  _490
REMARK  209  A    between atoms: _489  and  _492
REMARK  210  A    between atoms: _492  and  _493
REMARK  211  A    between atoms: _496  and  _498
REMARK  212  A    between atoms: _498  and  _499
REMARK  213  A    between atoms: _498  and  _501
REMARK  214  A    between atoms: _504  and  _506
REMARK  215  A    between atoms: _506  and  _507
REMARK  216  A    between atoms: _509  and  _511
REMARK  217  A    between atoms: _511  and  _512
REMARK  218  A    between atoms: _511  and  _514
REMARK  219  A    between atoms: _514  and  _515
REMARK  220  A    between atoms: _518  and  _520
REMARK  221  A    between atoms: _520  and  _521
REMARK  222  A    between atoms: _520  and  _523
REMARK  223  A    between atoms: _523  and  _524
REMARK  224  A    between atoms: _524  and  _525
REMARK  225  A    between atoms: _525  and  _526
REMARK  226  A    between atoms: _526  and  _527
REMARK  227  A    between atoms: _531  and  _533
REMARK  228  A    between atoms: _533  and  _534
REMARK  229  A    between atoms: _533  and  _536
REMARK  230  A    between atoms: _539  and  _541
REMARK  231  A    between atoms: _541  and  _542
REMARK  232  A    between atoms: _541  and  _544
REMARK  233  A    between atoms: _544  and  _545
REMARK  234  A    between atoms: _550  and  _551
REMARK                            x       y       z     vdW  Elec       q    Type
REMARK                         _______ _______ _______ _____ _____    ______ ____
ROOT
ATOM      1  O   HOH     1       5.431   2.586  25.903  0.00  0.00    +0.000 OA
ENDROOT
TORSDOF 0
REMARK  Name = ../refined-set-2016/4cwn/4cwn_pocket.pdb
REMARK  234 active torsions:
REMARK  status: ('A' for Active; 'I' for Inactive)
REMARK    1  A    between atoms: _1  and  _3
REMARK    2  A    between atoms: _3  and  _4
REMARK    3  A    between atoms: _3  and  _6
REMARK    4  A    between atoms: _6  and  _7
REMARK    5  A    between atoms: _13  and  _15
REMARK    6  A    between atoms: _15  and  _16
REMARK    7  A    between atoms: _15  and  _18
REMARK    8  A    between atoms: _18  and  _19
REMARK    9  A    between atoms: _22  and  _24
REMARK   10  A    between atoms: _24  and  _25
REMARK   11  A    between atoms: _24  and  _27
REMARK   12  A    between atoms: _27  and  _28
REMARK   13  A    between atoms: _31  and  _33
REMARK   14  A    between atoms: _33  and  _34
REMARK   15  A    between atoms: _33  and  _36
REMARK   16  A    between atoms: _36  and  _37
REMARK   17  A    between atoms: _37  and  _38
REMARK   18  A    between atoms: _41  and  _43
REMARK   19  A    between atoms: _43  and  _44
REMARK   20  A    between atoms: _43  and  _46
REMARK   21  A    between atoms: _46  and  _47
REMARK   22  A    between atoms: _50  and  _52
REMARK   23  A    between atoms: _52  and  _53
REMARK   24  A    between atoms: _52  and  _55
REMARK   25  A    between atoms: _55  and  _56
REMARK   26  A    between atoms: _59  and  _61
REMARK   27  A    between atoms: _61  and  _62
REMARK   28  A    between atoms: _61  and  _64
REMARK   29  A    between atoms: _64  and  _65
REMARK   30  A    between atoms: _67  and  _69
REMARK   31  A    between atoms: _69  and  _70
REMARK   32  A    between atoms: _69  and  _72
REMARK   33  A    between atoms: _72  and  _73
REMARK   34  A    between atoms: _78  and  _80
REMARK   35  A    between atoms: _80  and  _81
REMARK   36  A    between atoms: _80  and  _83
REMARK   37  A    between atoms: _83  and  _84
REMARK   38  A    between atoms: _86  and  _88
REMARK   39  A    between atoms: _88  and  _89
REMARK   40  A    between atoms: _88  and  _91
REMARK   41  A    between atoms: _91  and  _92
REMARK   42  A    between atoms: _94  and  _96
REMARK   43  A    between atoms: _96  and  _97
REMARK   44  A    between atoms: _96  and  _99
REMARK   45  A    between atoms: _99  and  _100
REMARK   46  A    between atoms: _103  and  _105
REMARK   47  A    between atoms: _105  and  _106
REMARK   48  A    between atoms: _109  and  _111
REMARK   49  A    between atoms: _111  and  _112
REMARK   50  A    between atoms: _111  and  _114
REMARK   51  A    between atoms: _114  and  _115
REMARK   52  A    between atoms: _118  and  _120
REMARK   53  A    between atoms: _120  and  _121
REMARK   54  A    between atoms: _120  and  _123
REMARK   55  A    between atoms: _123  and  _124
REMARK   56  A    between atoms: _124  and  _125
REMARK   57  A    between atoms: _125  and  _126
REMARK   58  A    between atoms: _126  and  _127
REMARK   59  A    between atoms: _131  and  _133
REMARK   60  A    between atoms: _133  and  _134
REMARK   61  A    between atoms: _133  and  _136
REMARK   62  A    between atoms: _136  and  _137
REMARK   63  A    between atoms: _140  and  _142
REMARK   64  A    between atoms: _142  and  _143
REMARK   65  A    between atoms: _142  and  _145
REMARK   66  A    between atoms: _145  and  _146
REMARK   67  A    between atoms: _149  and  _151
REMARK   68  A    between atoms: _151  and  _152
REMARK   69  A    between atoms: _151  and  _154
REMARK   70  A    between atoms: _157  and  _159
REMARK   71  A    between atoms: _159  and  _160
REMARK   72  A    between atoms: _159  and  _162
REMARK   73  A    between atoms: _162  and  _163
REMARK   74  A    between atoms: _166  and  _168
REMARK   75  A    between atoms: _168  and  _169
REMARK   76  A    between atoms: _168  and  _171
REMARK   77  A    between atoms: _171  and  _172
REMARK   78  A    between atoms: _175  and  _177
REMARK   79  A    between atoms: _177  and  _178
REMARK   80  A    between atoms: _180  and  _182
REMARK   81  A    between atoms: _182  and  _183
REMARK   82  A    between atoms: _182  and  _185
REMARK   83  A    between atoms: _185  and  _186
REMARK   84  A    between atoms: _189  and  _191
REMARK   85  A    between atoms: _191  and  _192
REMARK   86  A    between atoms: _194  and  _196
REMARK   87  A    between atoms: _196  and  _197
REMARK   88  A    between atoms: _196  and  _199
REMARK   89  A    between atoms: _199  and  _200
REMARK   90  A    between atoms: _200  and  _201
REMARK   91  A    between atoms: _203  and  _205
REMARK   92  A    between atoms: _205  and  _206
REMARK   93  A    between atoms: _205  and  _208
REMARK   94  A    between atoms: _208  and  _209
REMARK   95  A    between atoms: _212  and  _214
REMARK   96  A    between atoms: _214  and  _215
REMARK   97  A    between atoms: _214  and  _217
REMARK   98  A    between atoms: _217  and  _218
REMARK   99  A    between atoms: _221  and  _223
REMARK  100  A    between atoms: _223  and  _224
REMARK  101  A    between atoms: _223  and  _226
REMARK  102  A    between atoms: _226  and  _227
REMARK  103  A    between atoms: _230  and  _232
REMARK  104  A    between atoms: _232  and  _233
REMARK  105  A    between atoms: _232  and  _235
REMARK  106  A    between atoms: _235  and  _236
REMARK  107  A    between atoms: _239  and  _241
REMARK  108  A    between atoms: _241  and  _242
REMARK  109  A    between atoms: _241  and  _244
REMARK  110  A    between atoms: _244  and  _245
REMARK  111  A    between atoms: _250  and  _252
REMARK  112  A    between atoms: _252  and  _253
REMARK  113  A    between atoms: _252  and  _255
REMARK  114  A    between atoms: _255  and  _256
REMARK  115  A    between atoms: _259  and  _261
REMARK  116  A    between atoms: _261  and  _262
REMARK  117  A    between atoms: _264  and  _266
REMARK  118  A    between atoms: _266  and  _267
REMARK  119  A    between atoms: _266  and  _269
REMARK  120  A    between atoms: _269  and  _270
REMARK  121  A    between atoms: _273  and  _275
REMARK  122  A    between atoms: _275  and  _276
REMARK  123  A    between atoms: _275  and  _278
REMARK  124  A    between atoms: _278  and  _279
REMARK  125  A    between atoms: _282  and  _284
REMARK  126  A    between atoms: _284  and  _285
REMARK  127  A    between atoms: _288  and  _290
REMARK  128  A    between atoms: _290  and  _291
REMARK  129  A    between atoms: _290  and  _293
REMARK  130  A    between atoms: _293  and  _294
REMARK  131  A    between atoms: _294  and  _295
REMARK  132  A    between atoms: _295  and  _296
REMARK  133  A    between atoms: _296  and  _297
REMARK  134  A    between atoms: _301  and  _303
REMARK  135  A    between atoms: _303  and  _304
REMARK  136  A    between atoms: _303  and  _306
REMARK  137  A    between atoms: _306  and  _307
REMARK  138  A    between atoms: _310  and  _312
REMARK  139  A    between atoms: _312  and  _313
REMARK  140  A    between atoms: _315  and  _317
REMARK  141  A    between atoms: _317  and  _318
REMARK  142  A    between atoms: _317  and  _320
REMARK  143  A    between atoms: _323  and  _325
REMARK  144  A    between atoms: _325  and  _326
REMARK  145  A    between atoms: _328  and  _330
REMARK  146  A    between atoms: _330  and  _331
REMARK  147  A    between atoms: _330  and  _333
REMARK  148  A    between atoms: _333  and  _334
REMARK  149  A    between atoms: _340  and  _342
REMARK  150  A    between atoms: _342  and  _343
REMARK  151  A    between atoms: _342  and  _345
REMARK  152  A    between atoms: _345  and  _346
REMARK  153  A    between atoms: _351  and  _352
REMARK  154  A    between atoms: _354  and  _356
REMARK  155  A    between atoms: _356  and  _357
REMARK  156  A    between atoms: _356  and  _359
REMARK  157  A    between atoms: _359  and  _360
REMARK  158  A    between atoms: _365  and  _366
REMARK  159  A    between atoms: _368  and  _370
REMARK  160  A    between atoms: _370  and  _371
REMARK  161  A    between atoms: _370  and  _373
REMARK  162  A    between atoms: _376  and  _378
REMARK  163  A    between atoms: _378  and  _379
REMARK  164  A    between atoms: _378  and  _381
REMARK  165  A    between atoms: _381  and  _382
REMARK  166  A    between atoms: _385  and  _387
REMARK  167  A    between atoms: _387  and  _388
REMARK  168  A    between atoms: _387  and  _390
REMARK  169  A    between atoms: _393  and  _395
REMARK  170  A    between atoms: _395  and  _396
REMARK  171  A    between atoms: _395  and  _398
REMARK  172  A    between atoms: _398  and  _399
REMARK  173  A    between atoms: _402  and  _404
REMARK  174  A    between atoms: _404  and  _405
REMARK  175  A    between atoms: _404  and  _407
REMARK  176  A    between atoms: _407  and  _408
REMARK  177  A    between atoms: _411  and  _413
REMARK  178  A    between atoms: _413  and  _414
REMARK  179  A    between atoms: _413  and  _416
REMARK  180  A    between atoms: _416  and  _417
REMARK  181  A    between atoms: _417  and  _418
REMARK  182  A    between atoms: _418  and  _419
REMARK  183  A    between atoms: _419  and  _420
REMARK  184  A    between atoms: _424  and  _426
REMARK  185  A    between atoms: _426  and  _427
REMARK  186  A    between atoms: _426  and  _429
REMARK  187  A    between atoms: _429  and  _430
REMARK  188  A    between atoms: _435  and  _437
REMARK  189  A    between atoms: _437  and  _438
REMARK  190  A    between atoms: _441  and  _443
REMARK  191  A    between atoms: _443  and  _444
REMARK  192  A    between atoms: _443  and  _446
REMARK  193  A    between atoms: _446  and  _447
REMARK  194  A    between atoms: _457  and  _459
REMARK  195  A    between atoms: _459  and  _460
REMARK  196  A    between atoms: _459  and  _462
REMARK  197  A    between atoms: _462  and  _463
REMARK  198  A    between atoms: _463  and  _464
REMARK  199  A    between atoms: _467  and  _469
REMARK  200  A    between atoms: _469  and  _470
REMARK  201  A    between atoms: _469  and  _472
REMARK  202  A    between atoms: _472  and  _473
REMARK  203  A    between atoms: _475  and  _477
REMARK  204  A    between atoms: _477  and  _478
REMARK  205  A    between atoms: _477  and  _480
REMARK  206  A    between atoms: _480  and  _481
REMARK  207  A    between atoms: _487  and  _489
REMARK  208  A    between atoms: _489  and  _490
REMARK  209  A    between atoms: _489  and  _492
REMARK  210  A    between atoms: _492  and  _493
REMARK  211  A    between atoms: _496  and  _498
REMARK  212  A    between atoms: _498  and  _499
REMARK  213  A    between atoms: _498  and  _501
REMARK  214  A    between atoms: _504  and  _506
REMARK  215  A    between atoms: _506  and  _507
REMARK  216  A    between atoms: _509  and  _511
REMARK  217  A    between atoms: _511  and  _512
REMARK  218  A    between atoms: _511  and  _514
REMARK  219  A    between atoms: _514  and  _515
REMARK  220  A    between atoms: _518  and  _520
REMARK  221  A    between atoms: _520  and  _521
REMARK  222  A    between atoms: _520  and  _523
REMARK  223  A    between atoms: _523  and  _524
REMARK  224  A    between atoms: _524  and  _525
REMARK  225  A    between atoms: _525  and  _526
REMARK  226  A    between atoms: _526  and  _527
REMARK  227  A    between atoms: _531  and  _533
REMARK  228  A    between atoms: _533  and  _534
REMARK  229  A    between atoms: _533  and  _536
REMARK  230  A    between atoms: _539  and  _541
REMARK  231  A    between atoms: _541  and  _542
REMARK  232  A    between atoms: _541  and  _544
REMARK  233  A    between atoms: _544  and  _545
REMARK  234  A    between atoms: _550  and  _551
REMARK                            x       y       z     vdW  Elec       q    Type
REMARK                         _______ _______ _______ _____ _____    ______ ____
ROOT
ATOM      1  O   HOH     1       0.831   5.238  31.286  0.00  0.00    +0.000 OA
ENDROOT
TORSDOF 0
