REMARK  Name = ../refined-set-2016/3zi8/3zi8_pocket.pdb
REMARK  109 active torsions:
REMARK  status: ('A' for Active; 'I' for Inactive)
REMARK    1  A    between atoms: _1  and  _3
REMARK    2  A    between atoms: _3  and  _4
REMARK    3  A    between atoms: _3  and  _6
REMARK    4  A    between atoms: _6  and  _7
REMARK    5  A    between atoms: _10  and  _12
REMARK    6  A    between atoms: _12  and  _13
REMARK    7  A    between atoms: _12  and  _15
REMARK    8  A    between atoms: _15  and  _16
REMARK    9  A    between atoms: _26  and  _28
REMARK   10  A    between atoms: _28  and  _29
REMARK   11  A    between atoms: _28  and  _31
REMARK   12  A    between atoms: _31  and  _32
REMARK   13  A    between atoms: _37  and  _39
REMARK   14  A    between atoms: _39  and  _40
REMARK   15  A    between atoms: _39  and  _42
REMARK   16  A    between atoms: _42  and  _43
REMARK   17  A    between atoms: _46  and  _48
REMARK   18  A    between atoms: _48  and  _49
REMARK   19  A    between atoms: _48  and  _51
REMARK   20  A    between atoms: _51  and  _52
REMARK   21  A    between atoms: _52  and  _53
REMARK   22  A    between atoms: _53  and  _54
REMARK   23  A    between atoms: _63  and  _65
REMARK   24  A    between atoms: _65  and  _66
REMARK   25  A    between atoms: _65  and  _68
REMARK   26  A    between atoms: _71  and  _73
REMARK   27  A    between atoms: _73  and  _74
REMARK   28  A    between atoms: _73  and  _76
REMARK   29  A    between atoms: _76  and  _77
REMARK   30  A    between atoms: _82  and  _83
REMARK   31  A    between atoms: _85  and  _87
REMARK   32  A    between atoms: _87  and  _88
REMARK   33  A    between atoms: _87  and  _90
REMARK   34  A    between atoms: _90  and  _91
REMARK   35  A    between atoms: _91  and  _92
REMARK   36  A    between atoms: _95  and  _97
REMARK   37  A    between atoms: _97  and  _98
REMARK   38  A    between atoms: _97  and  _100
REMARK   39  A    between atoms: _100  and  _101
REMARK   40  A    between atoms: _111  and  _113
REMARK   41  A    between atoms: _113  and  _114
REMARK   42  A    between atoms: _113  and  _116
REMARK   43  A    between atoms: _118  and  _120
REMARK   44  A    between atoms: _120  and  _121
REMARK   45  A    between atoms: _120  and  _123
REMARK   46  A    between atoms: _123  and  _124
REMARK   47  A    between atoms: _134  and  _136
REMARK   48  A    between atoms: _136  and  _137
REMARK   49  A    between atoms: _136  and  _139
REMARK   50  A    between atoms: _139  and  _140
REMARK   51  A    between atoms: _143  and  _145
REMARK   52  A    between atoms: _145  and  _146
REMARK   53  A    between atoms: _145  and  _148
REMARK   54  A    between atoms: _148  and  _149
REMARK   55  A    between atoms: _152  and  _154
REMARK   56  A    between atoms: _154  and  _155
REMARK   57  A    between atoms: _154  and  _157
REMARK   58  A    between atoms: _157  and  _158
REMARK   59  A    between atoms: _158  and  _159
REMARK   60  A    between atoms: _159  and  _160
REMARK   61  A    between atoms: _160  and  _161
REMARK   62  A    between atoms: _165  and  _167
REMARK   63  A    between atoms: _167  and  _168
REMARK   64  A    between atoms: _170  and  _172
REMARK   65  A    between atoms: _172  and  _173
REMARK   66  A    between atoms: _176  and  _178
REMARK   67  A    between atoms: _178  and  _179
REMARK   68  A    between atoms: _178  and  _181
REMARK   69  A    between atoms: _181  and  _182
REMARK   70  A    between atoms: _187  and  _188
REMARK   71  A    between atoms: _190  and  _192
REMARK   72  A    between atoms: _192  and  _193
REMARK   73  A    between atoms: _192  and  _195
REMARK   74  A    between atoms: _195  and  _196
REMARK   75  A    between atoms: _199  and  _201
REMARK   76  A    between atoms: _201  and  _202
REMARK   77  A    between atoms: _201  and  _204
REMARK   78  A    between atoms: _208  and  _209
REMARK   79  A    between atoms: _214  and  _216
REMARK   80  A    between atoms: _216  and  _217
REMARK   81  A    between atoms: _216  and  _219
REMARK   82  A    between atoms: _219  and  _220
REMARK   83  A    between atoms: _222  and  _224
REMARK   84  A    between atoms: _224  and  _225
REMARK   85  A    between atoms: _224  and  _227
REMARK   86  A    between atoms: _227  and  _228
REMARK   87  A    between atoms: _231  and  _233
REMARK   88  A    between atoms: _233  and  _234
REMARK   89  A    between atoms: _233  and  _236
REMARK   90  A    between atoms: _236  and  _237
REMARK   91  A    between atoms: _247  and  _249
REMARK   92  A    between atoms: _249  and  _250
REMARK   93  A    between atoms: _249  and  _252
REMARK   94  A    between atoms: _252  and  _253
REMARK   95  A    between atoms: _256  and  _258
REMARK   96  A    between atoms: _258  and  _259
REMARK   97  A    between atoms: _261  and  _263
REMARK   98  A    between atoms: _263  and  _264
REMARK   99  A    between atoms: _263  and  _266
REMARK  100  A    between atoms: _266  and  _267
REMARK  101  A    between atoms: _267  and  _268
REMARK  102  A    between atoms: _268  and  _269
REMARK  103  A    between atoms: _269  and  _270
REMARK  104  A    between atoms: _274  and  _276
REMARK  105  A    between atoms: _276  and  _277
REMARK  106  A    between atoms: _279  and  _281
REMARK  107  A    between atoms: _281  and  _282
REMARK  108  A    between atoms: _281  and  _284
REMARK  109  A    between atoms: _284  and  _285
REMARK                            x       y       z     vdW  Elec       q    Type
REMARK                         _______ _______ _______ _____ _____    ______ ____
ROOT
ATOM      1  CA  THR A   1      30.648  19.284 -17.113  0.00  0.00    +0.160 C 
ENDROOT
BRANCH   1   2
ATOM      2  N   THR A   1      30.074  19.429 -15.787  0.00  0.00    -0.237 NA
ATOM      3  H   THR A   1      29.060  19.242 -15.649  0.00  0.00    +0.142 HD
ENDBRANCH   1   2
BRANCH   1   4
ATOM      4  CB  THR A   1      31.191  17.852 -17.347  0.00  0.00    +0.134 C 
ATOM      5  CG2 THR A   1      30.087  16.850 -17.467  0.00  0.00    +0.034 C 
BRANCH   4   6
ATOM      6  OG1 THR A   1      31.974  17.819 -18.555  0.00  0.00    -0.383 OA
ATOM      7  HG1 THR A   1      32.734  18.448 -18.472  0.00  0.00    +0.210 HD
ENDBRANCH   4   6
ENDBRANCH   1   4
BRANCH   1   8
ATOM      8  C   THR A   1      29.576  19.706 -18.124  0.00  0.00    +0.227 C 
ATOM      9  O   THR A   1      28.393  19.830 -17.774  0.00  0.00    -0.287 OA
ENDBRANCH   1   8
TORSDOF 4
REMARK  Name = ../refined-set-2016/3zi8/3zi8_pocket.pdb
REMARK  109 active torsions:
REMARK  status: ('A' for Active; 'I' for Inactive)
REMARK    1  A    between atoms: _1  and  _3
REMARK    2  A    between atoms: _3  and  _4
REMARK    3  A    between atoms: _3  and  _6
REMARK    4  A    between atoms: _6  and  _7
REMARK    5  A    between atoms: _10  and  _12
REMARK    6  A    between atoms: _12  and  _13
REMARK    7  A    between atoms: _12  and  _15
REMARK    8  A    between atoms: _15  and  _16
REMARK    9  A    between atoms: _26  and  _28
REMARK   10  A    between atoms: _28  and  _29
REMARK   11  A    between atoms: _28  and  _31
REMARK   12  A    between atoms: _31  and  _32
REMARK   13  A    between atoms: _37  and  _39
REMARK   14  A    between atoms: _39  and  _40
REMARK   15  A    between atoms: _39  and  _42
REMARK   16  A    between atoms: _42  and  _43
REMARK   17  A    between atoms: _46  and  _48
REMARK   18  A    between atoms: _48  and  _49
REMARK   19  A    between atoms: _48  and  _51
REMARK   20  A    between atoms: _51  and  _52
REMARK   21  A    between atoms: _52  and  _53
REMARK   22  A    between atoms: _53  and  _54
REMARK   23  A    between atoms: _63  and  _65
REMARK   24  A    between atoms: _65  and  _66
REMARK   25  A    between atoms: _65  and  _68
REMARK   26  A    between atoms: _71  and  _73
REMARK   27  A    between atoms: _73  and  _74
REMARK   28  A    between atoms: _73  and  _76
REMARK   29  A    between atoms: _76  and  _77
REMARK   30  A    between atoms: _82  and  _83
REMARK   31  A    between atoms: _85  and  _87
REMARK   32  A    between atoms: _87  and  _88
REMARK   33  A    between atoms: _87  and  _90
REMARK   34  A    between atoms: _90  and  _91
REMARK   35  A    between atoms: _91  and  _92
REMARK   36  A    between atoms: _95  and  _97
REMARK   37  A    between atoms: _97  and  _98
REMARK   38  A    between atoms: _97  and  _100
REMARK   39  A    between atoms: _100  and  _101
REMARK   40  A    between atoms: _111  and  _113
REMARK   41  A    between atoms: _113  and  _114
REMARK   42  A    between atoms: _113  and  _116
REMARK   43  A    between atoms: _118  and  _120
REMARK   44  A    between atoms: _120  and  _121
REMARK   45  A    between atoms: _120  and  _123
REMARK   46  A    between atoms: _123  and  _124
REMARK   47  A    between atoms: _134  and  _136
REMARK   48  A    between atoms: _136  and  _137
REMARK   49  A    between atoms: _136  and  _139
REMARK   50  A    between atoms: _139  and  _140
REMARK   51  A    between atoms: _143  and  _145
REMARK   52  A    between atoms: _145  and  _146
REMARK   53  A    between atoms: _145  and  _148
REMARK   54  A    between atoms: _148  and  _149
REMARK   55  A    between atoms: _152  and  _154
REMARK   56  A    between atoms: _154  and  _155
REMARK   57  A    between atoms: _154  and  _157
REMARK   58  A    between atoms: _157  and  _158
REMARK   59  A    between atoms: _158  and  _159
REMARK   60  A    between atoms: _159  and  _160
REMARK   61  A    between atoms: _160  and  _161
REMARK   62  A    between atoms: _165  and  _167
REMARK   63  A    between atoms: _167  and  _168
REMARK   64  A    between atoms: _170  and  _172
REMARK   65  A    between atoms: _172  and  _173
REMARK   66  A    between atoms: _176  and  _178
REMARK   67  A    between atoms: _178  and  _179
REMARK   68  A    between atoms: _178  and  _181
REMARK   69  A    between atoms: _181  and  _182
REMARK   70  A    between atoms: _187  and  _188
REMARK   71  A    between atoms: _190  and  _192
REMARK   72  A    between atoms: _192  and  _193
REMARK   73  A    between atoms: _192  and  _195
REMARK   74  A    between atoms: _195  and  _196
REMARK   75  A    between atoms: _199  and  _201
REMARK   76  A    between atoms: _201  and  _202
REMARK   77  A    between atoms: _201  and  _204
REMARK   78  A    between atoms: _208  and  _209
REMARK   79  A    between atoms: _214  and  _216
REMARK   80  A    between atoms: _216  and  _217
REMARK   81  A    between atoms: _216  and  _219
REMARK   82  A    between atoms: _219  and  _220
REMARK   83  A    between atoms: _222  and  _224
REMARK   84  A    between atoms: _224  and  _225
REMARK   85  A    between atoms: _224  and  _227
REMARK   86  A    between atoms: _227  and  _228
REMARK   87  A    between atoms: _231  and  _233
REMARK   88  A    between atoms: _233  and  _234
REMARK   89  A    between atoms: _233  and  _236
REMARK   90  A    between atoms: _236  and  _237
REMARK   91  A    between atoms: _247  and  _249
REMARK   92  A    between atoms: _249  and  _250
REMARK   93  A    between atoms: _249  and  _252
REMARK   94  A    between atoms: _252  and  _253
REMARK   95  A    between atoms: _256  and  _258
REMARK   96  A    between atoms: _258  and  _259
REMARK   97  A    between atoms: _261  and  _263
REMARK   98  A    between atoms: _263  and  _264
REMARK   99  A    between atoms: _263  and  _266
REMARK  100  A    between atoms: _266  and  _267
REMARK  101  A    between atoms: _267  and  _268
REMARK  102  A    between atoms: _268  and  _269
REMARK  103  A    between atoms: _269  and  _270
REMARK  104  A    between atoms: _274  and  _276
REMARK  105  A    between atoms: _276  and  _277
REMARK  106  A    between atoms: _279  and  _281
REMARK  107  A    between atoms: _281  and  _282
REMARK  108  A    between atoms: _281  and  _284
REMARK  109  A    between atoms: _284  and  _285
REMARK                            x       y       z     vdW  Elec       q    Type
REMARK                         _______ _______ _______ _____ _____    ______ ____
ROOT
ATOM      1  CG  TRP A   1      27.688  17.530 -24.246  0.00  0.00    -0.002 A 
ATOM      2  CD2 TRP A   1      27.282  16.871 -23.053  0.00  0.00    +0.013 A 
ATOM      3  CE3 TRP A   1      27.849  16.740 -21.785  0.00  0.00    +0.001 A 
ATOM      4  CZ3 TRP A   1      27.184  16.012 -20.842  0.00  0.00    +0.000 A 
ATOM      5  CH2 TRP A   1      25.948  15.428 -21.108  0.00  0.00    +0.001 A 
ATOM      6  CZ2 TRP A   1      25.350  15.569 -22.351  0.00  0.00    +0.017 A 
ATOM      7  CE2 TRP A   1      26.027  16.283 -23.301  0.00  0.00    +0.056 A 
ATOM      8  NE1 TRP A   1      25.698  16.556 -24.600  0.00  0.00    -0.352 N 
ATOM      9  HE1 TRP A   1      24.824  16.259 -25.079  0.00  0.00    +0.166 HD
ATOM     10  CD1 TRP A   1      26.705  17.281 -25.164  0.00  0.00    +0.068 A 
ENDROOT
BRANCH   1  11
ATOM     11  CB  TRP A   1      28.959  18.294 -24.450  0.00  0.00    +0.053 C 
BRANCH  11  12
ATOM     12  CA  TRP A   1      28.878  19.777 -24.096  0.00  0.00    +0.137 C 
BRANCH  12  13
ATOM     13  N   TRP A   1      28.555  19.989 -22.699  0.00  0.00    -0.239 NA
ATOM     14  H   TRP A   1      27.561  20.116 -22.420  0.00  0.00    +0.142 HD
ENDBRANCH  12  13
BRANCH  12  15
ATOM     15  C   TRP A   1      27.836  20.469 -24.941  0.00  0.00    +0.224 C 
ATOM     16  O   TRP A   1      26.710  20.562 -24.595  0.00  0.00    -0.287 OA
ENDBRANCH  12  15
ENDBRANCH  11  12
ENDBRANCH   1  11
TORSDOF 4
REMARK  Name = ../refined-set-2016/3zi8/3zi8_pocket.pdb
REMARK  109 active torsions:
REMARK  status: ('A' for Active; 'I' for Inactive)
REMARK    1  A    between atoms: _1  and  _3
REMARK    2  A    between atoms: _3  and  _4
REMARK    3  A    between atoms: _3  and  _6
REMARK    4  A    between atoms: _6  and  _7
REMARK    5  A    between atoms: _10  and  _12
REMARK    6  A    between atoms: _12  and  _13
REMARK    7  A    between atoms: _12  and  _15
REMARK    8  A    between atoms: _15  and  _16
REMARK    9  A    between atoms: _26  and  _28
REMARK   10  A    between atoms: _28  and  _29
REMARK   11  A    between atoms: _28  and  _31
REMARK   12  A    between atoms: _31  and  _32
REMARK   13  A    between atoms: _37  and  _39
REMARK   14  A    between atoms: _39  and  _40
REMARK   15  A    between atoms: _39  and  _42
REMARK   16  A    between atoms: _42  and  _43
REMARK   17  A    between atoms: _46  and  _48
REMARK   18  A    between atoms: _48  and  _49
REMARK   19  A    between atoms: _48  and  _51
REMARK   20  A    between atoms: _51  and  _52
REMARK   21  A    between atoms: _52  and  _53
REMARK   22  A    between atoms: _53  and  _54
REMARK   23  A    between atoms: _63  and  _65
REMARK   24  A    between atoms: _65  and  _66
REMARK   25  A    between atoms: _65  and  _68
REMARK   26  A    between atoms: _71  and  _73
REMARK   27  A    between atoms: _73  and  _74
REMARK   28  A    between atoms: _73  and  _76
REMARK   29  A    between atoms: _76  and  _77
REMARK   30  A    between atoms: _82  and  _83
REMARK   31  A    between atoms: _85  and  _87
REMARK   32  A    between atoms: _87  and  _88
REMARK   33  A    between atoms: _87  and  _90
REMARK   34  A    between atoms: _90  and  _91
REMARK   35  A    between atoms: _91  and  _92
REMARK   36  A    between atoms: _95  and  _97
REMARK   37  A    between atoms: _97  and  _98
REMARK   38  A    between atoms: _97  and  _100
REMARK   39  A    between atoms: _100  and  _101
REMARK   40  A    between atoms: _111  and  _113
REMARK   41  A    between atoms: _113  and  _114
REMARK   42  A    between atoms: _113  and  _116
REMARK   43  A    between atoms: _118  and  _120
REMARK   44  A    between atoms: _120  and  _121
REMARK   45  A    between atoms: _120  and  _123
REMARK   46  A    between atoms: _123  and  _124
REMARK   47  A    between atoms: _134  and  _136
REMARK   48  A    between atoms: _136  and  _137
REMARK   49  A    between atoms: _136  and  _139
REMARK   50  A    between atoms: _139  and  _140
REMARK   51  A    between atoms: _143  and  _145
REMARK   52  A    between atoms: _145  and  _146
REMARK   53  A    between atoms: _145  and  _148
REMARK   54  A    between atoms: _148  and  _149
REMARK   55  A    between atoms: _152  and  _154
REMARK   56  A    between atoms: _154  and  _155
REMARK   57  A    between atoms: _154  and  _157
REMARK   58  A    between atoms: _157  and  _158
REMARK   59  A    between atoms: _158  and  _159
REMARK   60  A    between atoms: _159  and  _160
REMARK   61  A    between atoms: _160  and  _161
REMARK   62  A    between atoms: _165  and  _167
REMARK   63  A    between atoms: _167  and  _168
REMARK   64  A    between atoms: _170  and  _172
REMARK   65  A    between atoms: _172  and  _173
REMARK   66  A    between atoms: _176  and  _178
REMARK   67  A    between atoms: _178  and  _179
REMARK   68  A    between atoms: _178  and  _181
REMARK   69  A    between atoms: _181  and  _182
REMARK   70  A    between atoms: _187  and  _188
REMARK   71  A    between atoms: _190  and  _192
REMARK   72  A    between atoms: _192  and  _193
REMARK   73  A    between atoms: _192  and  _195
REMARK   74  A    between atoms: _195  and  _196
REMARK   75  A    between atoms: _199  and  _201
REMARK   76  A    between atoms: _201  and  _202
REMARK   77  A    between atoms: _201  and  _204
REMARK   78  A    between atoms: _208  and  _209
REMARK   79  A    between atoms: _214  and  _216
REMARK   80  A    between atoms: _216  and  _217
REMARK   81  A    between atoms: _216  and  _219
REMARK   82  A    between atoms: _219  and  _220
REMARK   83  A    between atoms: _222  and  _224
REMARK   84  A    between atoms: _224  and  _225
REMARK   85  A    between atoms: _224  and  _227
REMARK   86  A    between atoms: _227  and  _228
REMARK   87  A    between atoms: _231  and  _233
REMARK   88  A    between atoms: _233  and  _234
REMARK   89  A    between atoms: _233  and  _236
REMARK   90  A    between atoms: _236  and  _237
REMARK   91  A    between atoms: _247  and  _249
REMARK   92  A    between atoms: _249  and  _250
REMARK   93  A    between atoms: _249  and  _252
REMARK   94  A    between atoms: _252  and  _253
REMARK   95  A    between atoms: _256  and  _258
REMARK   96  A    between atoms: _258  and  _259
REMARK   97  A    between atoms: _261  and  _263
REMARK   98  A    between atoms: _263  and  _264
REMARK   99  A    between atoms: _263  and  _266
REMARK  100  A    between atoms: _266  and  _267
REMARK  101  A    between atoms: _267  and  _268
REMARK  102  A    between atoms: _268  and  _269
REMARK  103  A    between atoms: _269  and  _270
REMARK  104  A    between atoms: _274  and  _276
REMARK  105  A    between atoms: _276  and  _277
REMARK  106  A    between atoms: _279  and  _281
REMARK  107  A    between atoms: _281  and  _282
REMARK  108  A    between atoms: _281  and  _284
REMARK  109  A    between atoms: _284  and  _285
REMARK                            x       y       z     vdW  Elec       q    Type
REMARK                         _______ _______ _______ _____ _____    ______ ____
ROOT
ATOM      1  CA  ARG A   3      25.440  18.247 -15.944  0.00  0.00    +0.149 C 
ENDROOT
BRANCH   1   3
ATOM      2  C   ILE A   2      24.702  19.769 -17.706  0.00  0.00    +0.241 C 
ATOM      3  N   ARG A   3      25.688  19.207 -17.021  0.00  0.00    -0.297 N 
ATOM      4  H   ARG A   3      26.670  19.456 -17.256  0.00  0.00    +0.150 HD
ATOM      5  O   ILE A   2      23.511  19.432 -17.574  0.00  0.00    -0.273 OA
BRANCH   2   6
ATOM      6  CA  ILE A   2      25.097  20.866 -18.661  0.00  0.00    +0.148 C 
BRANCH   6   8
ATOM      7  C   HIS A   1      24.908  20.477 -21.070  0.00  0.00    +0.239 C 
ATOM      8  N   ILE A   2      24.316  20.685 -19.902  0.00  0.00    -0.297 N 
ATOM      9  H   ILE A   2      23.278  20.722 -19.858  0.00  0.00    +0.150 HD
ATOM     10  O   HIS A   1      26.124  20.328 -21.222  0.00  0.00    -0.274 OA
BRANCH   7  11
ATOM     11  CA  HIS A   1      23.989  20.405 -22.255  0.00  0.00    +0.151 C 
BRANCH  11  12
ATOM     12  N   HIS A   1      24.395  21.426 -23.173  0.00  0.00    -0.238 NA
ATOM     13  H   HIS A   1      25.313  21.326 -23.652  0.00  0.00    +0.142 HD
ENDBRANCH  11  12
BRANCH  11  14
ATOM     14  CB  HIS A   1      24.078  19.067 -22.932  0.00  0.00    +0.074 C 
BRANCH  14  15
ATOM     15  CG  HIS A   1      23.126  18.949 -24.081  0.00  0.00    +0.082 A 
ATOM     16  ND1 HIS A   1      21.896  18.351 -23.975  0.00  0.00    -0.227 NA
ATOM     17  CE1 HIS A   1      21.290  18.397 -25.153  0.00  0.00    +0.199 A 
ATOM     18  NE2 HIS A   1      22.053  19.082 -25.982  0.00  0.00    -0.221 NA
ATOM     19  CD2 HIS A   1      23.215  19.425 -25.339  0.00  0.00    +0.115 A 
ENDBRANCH  14  15
ENDBRANCH  11  14
ENDBRANCH   7  11
ENDBRANCH   6   8
BRANCH   6  20
ATOM     20  CB  ILE A   2      24.886  22.243 -17.995  0.00  0.00    +0.027 C 
ATOM     21  CG2 ILE A   2      25.814  22.425 -16.781  0.00  0.00    +0.002 C 
BRANCH  20  22
ATOM     22  CG1 ILE A   2      25.175  23.349 -19.024  0.00  0.00    +0.002 C 
ATOM     23  CD1 ILE A   2      24.813  24.747 -18.609  0.00  0.00    +0.000 C 
ENDBRANCH  20  22
ENDBRANCH   6  20
ENDBRANCH   2   6
ENDBRANCH   1   3
BRANCH   1  24
ATOM     24  C   ARG A   3      26.117  18.762 -14.689  0.00  0.00    +0.241 C 
ATOM     25  N   VAL A   4      25.311  18.959 -13.652  0.00  0.00    -0.297 N 
ATOM     26  H   VAL A   4      24.302  18.738 -13.777  0.00  0.00    +0.150 HD
ATOM     27  O   ARG A   3      27.320  18.964 -14.676  0.00  0.00    -0.273 OA
BRANCH  25  28
ATOM     28  CA  VAL A   4      25.728  19.453 -12.375  0.00  0.00    +0.149 C 
BRANCH  28  29
ATOM     29  C   VAL A   4      25.579  18.327 -11.374  0.00  0.00    +0.241 C 
ATOM     30  N   TYR A   5      26.652  18.001 -10.661  0.00  0.00    -0.298 N 
ATOM     31  H   TYR A   5      27.540  18.519 -10.822  0.00  0.00    +0.150 HD
ATOM     32  O   VAL A   4      24.508  17.743 -11.272  0.00  0.00    -0.273 OA
BRANCH  30  33
ATOM     33  CA  TYR A   5      26.625  16.942  -9.661  0.00  0.00    +0.141 C 
BRANCH  33  34
ATOM     34  C   TYR A   5      26.678  17.587  -8.290  0.00  0.00    +0.227 C 
ATOM     35  O   TYR A   5      27.650  18.200  -7.933  0.00  0.00    -0.286 OA
ENDBRANCH  33  34
BRANCH  33  36
ATOM     36  CB  TYR A   5      27.777  15.928  -9.913  0.00  0.00    +0.054 C 
BRANCH  36  37
ATOM     37  CG  TYR A   5      27.621  15.268 -11.263  0.00  0.00    -0.020 A 
ATOM     38  CD2 TYR A   5      26.792  14.184 -11.427  0.00  0.00    -0.001 A 
ATOM     39  CE2 TYR A   5      26.553  13.634 -12.665  0.00  0.00    +0.036 A 
ATOM     40  CZ  TYR A   5      27.099  14.219 -13.776  0.00  0.00    +0.134 A 
ATOM     41  CE1 TYR A   5      27.954  15.291 -13.653  0.00  0.00    +0.036 A 
ATOM     42  CD1 TYR A   5      28.183  15.834 -12.403  0.00  0.00    -0.001 A 
BRANCH  40  43
ATOM     43  OH  TYR A   5      26.853  13.766 -15.026  0.00  0.00    -0.506 OA
ATOM     44  HH  TYR A   5      26.229  12.999 -14.981  0.00  0.00    +0.292 HD
ENDBRANCH  40  43
ENDBRANCH  36  37
ENDBRANCH  33  36
ENDBRANCH  30  33
ENDBRANCH  28  29
BRANCH  28  45
ATOM     45  CB  VAL A   4      24.899  20.666 -11.927  0.00  0.00    +0.027 C 
ATOM     46  CG2 VAL A   4      25.253  21.073 -10.507  0.00  0.00    +0.002 C 
ATOM     47  CG1 VAL A   4      25.083  21.859 -12.866  0.00  0.00    +0.002 C 
ENDBRANCH  28  45
ENDBRANCH  25  28
ENDBRANCH   1  24
BRANCH   1  48
ATOM     48  CB  ARG A   3      25.992  16.859 -16.296  0.00  0.00    +0.033 C 
BRANCH  48  49
ATOM     49  CG  ARG A   3      25.384  16.235 -17.563  0.00  0.00    +0.045 C 
BRANCH  49  50
ATOM     50  CD  ARG A   3      23.913  15.932 -17.371  0.00  0.00    +0.174 C 
BRANCH  50  51
ATOM     51  NE  ARG A   3      23.289  15.322 -18.552  0.00  0.00    -0.265 N 
ATOM     52  HE  ARG A   3      23.311  14.285 -18.633  0.00  0.00    +0.259 HD
ATOM     53  CZ  ARG A   3      22.699  16.007 -19.523  0.00  0.00    +0.342 C 
ATOM     54  NH2 ARG A   3      22.626  17.336 -19.502  0.00  0.00    -0.292 N 
ATOM     55 HH21 ARG A   3      23.038  17.867 -18.709  0.00  0.00    +0.255 HD
ATOM     56 HH22 ARG A   3      22.156  17.843 -20.279  0.00  0.00    +0.255 HD
ATOM     57  NH1 ARG A   3      22.129  15.363 -20.535  0.00  0.00    -0.292 N 
ATOM     58 HH11 ARG A   3      22.146  14.324 -20.565  0.00  0.00    +0.255 HD
ATOM     59 HH12 ARG A   3      21.666  15.898 -21.297  0.00  0.00    +0.255 HD
ENDBRANCH  50  51
ENDBRANCH  49  50
ENDBRANCH  48  49
ENDBRANCH   1  48
TORSDOF 22
REMARK  Name = ../refined-set-2016/3zi8/3zi8_pocket.pdb
REMARK  109 active torsions:
REMARK  status: ('A' for Active; 'I' for Inactive)
REMARK    1  A    between atoms: _1  and  _3
REMARK    2  A    between atoms: _3  and  _4
REMARK    3  A    between atoms: _3  and  _6
REMARK    4  A    between atoms: _6  and  _7
REMARK    5  A    between atoms: _10  and  _12
REMARK    6  A    between atoms: _12  and  _13
REMARK    7  A    between atoms: _12  and  _15
REMARK    8  A    between atoms: _15  and  _16
REMARK    9  A    between atoms: _26  and  _28
REMARK   10  A    between atoms: _28  and  _29
REMARK   11  A    between atoms: _28  and  _31
REMARK   12  A    between atoms: _31  and  _32
REMARK   13  A    between atoms: _37  and  _39
REMARK   14  A    between atoms: _39  and  _40
REMARK   15  A    between atoms: _39  and  _42
REMARK   16  A    between atoms: _42  and  _43
REMARK   17  A    between atoms: _46  and  _48
REMARK   18  A    between atoms: _48  and  _49
REMARK   19  A    between atoms: _48  and  _51
REMARK   20  A    between atoms: _51  and  _52
REMARK   21  A    between atoms: _52  and  _53
REMARK   22  A    between atoms: _53  and  _54
REMARK   23  A    between atoms: _63  and  _65
REMARK   24  A    between atoms: _65  and  _66
REMARK   25  A    between atoms: _65  and  _68
REMARK   26  A    between atoms: _71  and  _73
REMARK   27  A    between atoms: _73  and  _74
REMARK   28  A    between atoms: _73  and  _76
REMARK   29  A    between atoms: _76  and  _77
REMARK   30  A    between atoms: _82  and  _83
REMARK   31  A    between atoms: _85  and  _87
REMARK   32  A    between atoms: _87  and  _88
REMARK   33  A    between atoms: _87  and  _90
REMARK   34  A    between atoms: _90  and  _91
REMARK   35  A    between atoms: _91  and  _92
REMARK   36  A    between atoms: _95  and  _97
REMARK   37  A    between atoms: _97  and  _98
REMARK   38  A    between atoms: _97  and  _100
REMARK   39  A    between atoms: _100  and  _101
REMARK   40  A    between atoms: _111  and  _113
REMARK   41  A    between atoms: _113  and  _114
REMARK   42  A    between atoms: _113  and  _116
REMARK   43  A    between atoms: _118  and  _120
REMARK   44  A    between atoms: _120  and  _121
REMARK   45  A    between atoms: _120  and  _123
REMARK   46  A    between atoms: _123  and  _124
REMARK   47  A    between atoms: _134  and  _136
REMARK   48  A    between atoms: _136  and  _137
REMARK   49  A    between atoms: _136  and  _139
REMARK   50  A    between atoms: _139  and  _140
REMARK   51  A    between atoms: _143  and  _145
REMARK   52  A    between atoms: _145  and  _146
REMARK   53  A    between atoms: _145  and  _148
REMARK   54  A    between atoms: _148  and  _149
REMARK   55  A    between atoms: _152  and  _154
REMARK   56  A    between atoms: _154  and  _155
REMARK   57  A    between atoms: _154  and  _157
REMARK   58  A    between atoms: _157  and  _158
REMARK   59  A    between atoms: _158  and  _159
REMARK   60  A    between atoms: _159  and  _160
REMARK   61  A    between atoms: _160  and  _161
REMARK   62  A    between atoms: _165  and  _167
REMARK   63  A    between atoms: _167  and  _168
REMARK   64  A    between atoms: _170  and  _172
REMARK   65  A    between atoms: _172  and  _173
REMARK   66  A    between atoms: _176  and  _178
REMARK   67  A    between atoms: _178  and  _179
REMARK   68  A    between atoms: _178  and  _181
REMARK   69  A    between atoms: _181  and  _182
REMARK   70  A    between atoms: _187  and  _188
REMARK   71  A    between atoms: _190  and  _192
REMARK   72  A    between atoms: _192  and  _193
REMARK   73  A    between atoms: _192  and  _195
REMARK   74  A    between atoms: _195  and  _196
REMARK   75  A    between atoms: _199  and  _201
REMARK   76  A    between atoms: _201  and  _202
REMARK   77  A    between atoms: _201  and  _204
REMARK   78  A    between atoms: _208  and  _209
REMARK   79  A    between atoms: _214  and  _216
REMARK   80  A    between atoms: _216  and  _217
REMARK   81  A    between atoms: _216  and  _219
REMARK   82  A    between atoms: _219  and  _220
REMARK   83  A    between atoms: _222  and  _224
REMARK   84  A    between atoms: _224  and  _225
REMARK   85  A    between atoms: _224  and  _227
REMARK   86  A    between atoms: _227  and  _228
REMARK   87  A    between atoms: _231  and  _233
REMARK   88  A    between atoms: _233  and  _234
REMARK   89  A    between atoms: _233  and  _236
REMARK   90  A    between atoms: _236  and  _237
REMARK   91  A    between atoms: _247  and  _249
REMARK   92  A    between atoms: _249  and  _250
REMARK   93  A    between atoms: _249  and  _252
REMARK   94  A    between atoms: _252  and  _253
REMARK   95  A    between atoms: _256  and  _258
REMARK   96  A    between atoms: _258  and  _259
REMARK   97  A    between atoms: _261  and  _263
REMARK   98  A    between atoms: _263  and  _264
REMARK   99  A    between atoms: _263  and  _266
REMARK  100  A    between atoms: _266  and  _267
REMARK  101  A    between atoms: _267  and  _268
REMARK  102  A    between atoms: _268  and  _269
REMARK  103  A    between atoms: _269  and  _270
REMARK  104  A    between atoms: _274  and  _276
REMARK  105  A    between atoms: _276  and  _277
REMARK  106  A    between atoms: _279  and  _281
REMARK  107  A    between atoms: _281  and  _282
REMARK  108  A    between atoms: _281  and  _284
REMARK  109  A    between atoms: _284  and  _285
REMARK                            x       y       z     vdW  Elec       q    Type
REMARK                         _______ _______ _______ _____ _____    ______ ____
ROOT
ATOM      1  CA  CYS A   3      20.595  18.008 -16.313  0.00  0.00    +0.160 C 
ENDROOT
BRANCH   1   4
ATOM      2  C   TRP A   2      21.317  18.069 -13.976  0.00  0.00    +0.241 C 
ATOM      3  O   TRP A   2      22.499  18.319 -14.258  0.00  0.00    -0.273 OA
ATOM      4  N   CYS A   3      20.351  18.002 -14.892  0.00  0.00    -0.296 N 
ATOM      5  H   CYS A   3      19.366  17.942 -14.563  0.00  0.00    +0.150 HD
BRANCH   2   6
ATOM      6  CA  TRP A   2      20.910  17.816 -12.523  0.00  0.00    +0.153 C 
BRANCH   6   9
ATOM      7  C   GLU A   1      21.547  15.693 -11.524  0.00  0.00    +0.238 C 
ATOM      8  O   GLU A   1      20.401  15.253 -11.539  0.00  0.00    -0.274 OA
ATOM      9  N   TRP A   2      21.880  16.909 -11.952  0.00  0.00    -0.297 N 
ATOM     10  H   TRP A   2      22.870  17.216 -11.873  0.00  0.00    +0.150 HD
BRANCH   7  11
ATOM     11  CA  GLU A   1      22.701  14.849 -11.051  0.00  0.00    +0.145 C 
BRANCH  11  12
ATOM     12  N   GLU A   1      22.415  14.236  -9.761  0.00  0.00    -0.238 NA
ATOM     13  H   GLU A   1      21.953  13.304  -9.752  0.00  0.00    +0.142 HD
ENDBRANCH  11  12
BRANCH  11  14
ATOM     14  CB  GLU A   1      22.996  13.737 -12.064  0.00  0.00    +0.038 C 
BRANCH  14  15
ATOM     15  CG  GLU A   1      23.284  14.188 -13.487  0.00  0.00    +0.116 C 
BRANCH  15  16
ATOM     16  CD  GLU A   1      23.327  13.066 -14.502  0.00  0.00    +0.365 C 
ATOM     17  OE2 GLU A   1      22.460  12.194 -14.427  0.00  0.00    -0.246 OA
ATOM     18  OE1 GLU A   1      24.243  13.097 -15.346  0.00  0.00    -0.246 OA
ENDBRANCH  15  16
ENDBRANCH  14  15
ENDBRANCH  11  14
ENDBRANCH   7  11
ENDBRANCH   6   9
BRANCH   6  19
ATOM     19  CB  TRP A   2      20.882  19.131 -11.752  0.00  0.00    +0.057 C 
BRANCH  19  20
ATOM     20  CG  TRP A   2      20.323  18.931 -10.398  0.00  0.00    -0.002 A 
ATOM     21  CD1 TRP A   2      21.023  18.742  -9.252  0.00  0.00    +0.068 A 
ATOM     22  NE1 TRP A   2      20.143  18.527  -8.190  0.00  0.00    -0.352 N 
ATOM     23  HE1 TRP A   2      20.415  18.378  -7.197  0.00  0.00    +0.166 HD
ATOM     24  CE2 TRP A   2      18.865  18.545  -8.672  0.00  0.00    +0.056 A 
ATOM     25  CZ2 TRP A   2      17.667  18.381  -8.015  0.00  0.00    +0.017 A 
ATOM     26  CH2 TRP A   2      16.522  18.485  -8.745  0.00  0.00    +0.001 A 
ATOM     27  CZ3 TRP A   2      16.552  18.702 -10.127  0.00  0.00    +0.000 A 
ATOM     28  CE3 TRP A   2      17.756  18.863 -10.793  0.00  0.00    +0.001 A 
ATOM     29  CD2 TRP A   2      18.939  18.797 -10.057  0.00  0.00    +0.013 A 
ENDBRANCH  19  20
ENDBRANCH   6  19
ENDBRANCH   2   6
ENDBRANCH   1   4
BRANCH   1  30
ATOM     30  C   CYS A   3      19.927  19.190 -16.950  0.00  0.00    +0.242 C 
ATOM     31  O   CYS A   3      18.712  19.303 -16.854  0.00  0.00    -0.273 OA
ATOM     32  N   TRP A   4      20.702  20.025 -17.628  0.00  0.00    -0.297 N 
ATOM     33  H   TRP A   4      21.734  19.944 -17.526  0.00  0.00    +0.150 HD
BRANCH  32  34
ATOM     34  CA  TRP A   4      20.157  21.063 -18.521  0.00  0.00    +0.153 C 
BRANCH  34  35
ATOM     35  C   TRP A   4      20.330  20.572 -19.934  0.00  0.00    +0.241 C 
ATOM     36  O   TRP A   4      21.432  20.237 -20.312  0.00  0.00    -0.273 OA
ATOM     37  N   ASP A   5      19.271  20.592 -20.740  0.00  0.00    -0.298 N 
ATOM     38  H   ASP A   5      18.361  20.959 -20.395  0.00  0.00    +0.150 HD
BRANCH  37  39
ATOM     39  CA  ASP A   5      19.387  20.098 -22.110  0.00  0.00    +0.148 C 
BRANCH  39  40
ATOM     40  C   ASP A   5      18.899  21.046 -23.212  0.00  0.00    +0.227 C 
ATOM     41  O   ASP A   5      18.552  20.623 -24.330  0.00  0.00    -0.286 OA
ENDBRANCH  39  40
BRANCH  39  42
ATOM     42  CB  ASP A   5      18.776  18.707 -22.198  0.00  0.00    +0.142 C 
BRANCH  42  43
ATOM     43  CG  ASP A   5      19.580  17.705 -21.386  0.00  0.00    +0.367 C 
ATOM     44  OD2 ASP A   5      19.108  17.291 -20.302  0.00  0.00    -0.246 OA
ATOM     45  OD1 ASP A   5      20.724  17.389 -21.825  0.00  0.00    -0.246 OA
ENDBRANCH  42  43
ENDBRANCH  39  42
ENDBRANCH  37  39
ENDBRANCH  34  35
BRANCH  34  46
ATOM     46  CB  TRP A   4      20.906  22.382 -18.357  0.00  0.00    +0.057 C 
BRANCH  46  47
ATOM     47  CG  TRP A   4      20.456  23.466 -19.291  0.00  0.00    -0.002 A 
ATOM     48  CD2 TRP A   4      19.334  24.348 -19.120  0.00  0.00    +0.013 A 
ATOM     49  CE3 TRP A   4      18.426  24.567 -18.090  0.00  0.00    +0.001 A 
ATOM     50  CZ3 TRP A   4      17.485  25.602 -18.238  0.00  0.00    +0.000 A 
ATOM     51  CH2 TRP A   4      17.449  26.377 -19.372  0.00  0.00    +0.001 A 
ATOM     52  CZ2 TRP A   4      18.333  26.188 -20.399  0.00  0.00    +0.017 A 
ATOM     53  CE2 TRP A   4      19.281  25.162 -20.252  0.00  0.00    +0.056 A 
ATOM     54  NE1 TRP A   4      20.298  24.782 -21.099  0.00  0.00    -0.352 N 
ATOM     55  HE1 TRP A   4      20.512  25.197 -22.028  0.00  0.00    +0.166 HD
ATOM     56  CD1 TRP A   4      20.982  23.750 -20.489  0.00  0.00    +0.068 A 
ENDBRANCH  46  47
ENDBRANCH  34  46
ENDBRANCH  32  34
ENDBRANCH   1  30
BRANCH   1  57
ATOM     57  CB  CYS A   3      20.003  16.760 -16.975  0.00  0.00    +0.098 C 
ATOM     58  SG  CYS A   3      20.628  15.236 -16.257  0.00  0.00    -0.080 S 
ENDBRANCH   1  57
TORSDOF 20
REMARK  Name = ../refined-set-2016/3zi8/3zi8_pocket.pdb
REMARK  109 active torsions:
REMARK  status: ('A' for Active; 'I' for Inactive)
REMARK    1  A    between atoms: _1  and  _3
REMARK    2  A    between atoms: _3  and  _4
REMARK    3  A    between atoms: _3  and  _6
REMARK    4  A    between atoms: _6  and  _7
REMARK    5  A    between atoms: _10  and  _12
REMARK    6  A    between atoms: _12  and  _13
REMARK    7  A    between atoms: _12  and  _15
REMARK    8  A    between atoms: _15  and  _16
REMARK    9  A    between atoms: _26  and  _28
REMARK   10  A    between atoms: _28  and  _29
REMARK   11  A    between atoms: _28  and  _31
REMARK   12  A    between atoms: _31  and  _32
REMARK   13  A    between atoms: _37  and  _39
REMARK   14  A    between atoms: _39  and  _40
REMARK   15  A    between atoms: _39  and  _42
REMARK   16  A    between atoms: _42  and  _43
REMARK   17  A    between atoms: _46  and  _48
REMARK   18  A    between atoms: _48  and  _49
REMARK   19  A    between atoms: _48  and  _51
REMARK   20  A    between atoms: _51  and  _52
REMARK   21  A    between atoms: _52  and  _53
REMARK   22  A    between atoms: _53  and  _54
REMARK   23  A    between atoms: _63  and  _65
REMARK   24  A    between atoms: _65  and  _66
REMARK   25  A    between atoms: _65  and  _68
REMARK   26  A    between atoms: _71  and  _73
REMARK   27  A    between atoms: _73  and  _74
REMARK   28  A    between atoms: _73  and  _76
REMARK   29  A    between atoms: _76  and  _77
REMARK   30  A    between atoms: _82  and  _83
REMARK   31  A    between atoms: _85  and  _87
REMARK   32  A    between atoms: _87  and  _88
REMARK   33  A    between atoms: _87  and  _90
REMARK   34  A    between atoms: _90  and  _91
REMARK   35  A    between atoms: _91  and  _92
REMARK   36  A    between atoms: _95  and  _97
REMARK   37  A    between atoms: _97  and  _98
REMARK   38  A    between atoms: _97  and  _100
REMARK   39  A    between atoms: _100  and  _101
REMARK   40  A    between atoms: _111  and  _113
REMARK   41  A    between atoms: _113  and  _114
REMARK   42  A    between atoms: _113  and  _116
REMARK   43  A    between atoms: _118  and  _120
REMARK   44  A    between atoms: _120  and  _121
REMARK   45  A    between atoms: _120  and  _123
REMARK   46  A    between atoms: _123  and  _124
REMARK   47  A    between atoms: _134  and  _136
REMARK   48  A    between atoms: _136  and  _137
REMARK   49  A    between atoms: _136  and  _139
REMARK   50  A    between atoms: _139  and  _140
REMARK   51  A    between atoms: _143  and  _145
REMARK   52  A    between atoms: _145  and  _146
REMARK   53  A    between atoms: _145  and  _148
REMARK   54  A    between atoms: _148  and  _149
REMARK   55  A    between atoms: _152  and  _154
REMARK   56  A    between atoms: _154  and  _155
REMARK   57  A    between atoms: _154  and  _157
REMARK   58  A    between atoms: _157  and  _158
REMARK   59  A    between atoms: _158  and  _159
REMARK   60  A    between atoms: _159  and  _160
REMARK   61  A    between atoms: _160  and  _161
REMARK   62  A    between atoms: _165  and  _167
REMARK   63  A    between atoms: _167  and  _168
REMARK   64  A    between atoms: _170  and  _172
REMARK   65  A    between atoms: _172  and  _173
REMARK   66  A    between atoms: _176  and  _178
REMARK   67  A    between atoms: _178  and  _179
REMARK   68  A    between atoms: _178  and  _181
REMARK   69  A    between atoms: _181  and  _182
REMARK   70  A    between atoms: _187  and  _188
REMARK   71  A    between atoms: _190  and  _192
REMARK   72  A    between atoms: _192  and  _193
REMARK   73  A    between atoms: _192  and  _195
REMARK   74  A    between atoms: _195  and  _196
REMARK   75  A    between atoms: _199  and  _201
REMARK   76  A    between atoms: _201  and  _202
REMARK   77  A    between atoms: _201  and  _204
REMARK   78  A    between atoms: _208  and  _209
REMARK   79  A    between atoms: _214  and  _216
REMARK   80  A    between atoms: _216  and  _217
REMARK   81  A    between atoms: _216  and  _219
REMARK   82  A    between atoms: _219  and  _220
REMARK   83  A    between atoms: _222  and  _224
REMARK   84  A    between atoms: _224  and  _225
REMARK   85  A    between atoms: _224  and  _227
REMARK   86  A    between atoms: _227  and  _228
REMARK   87  A    between atoms: _231  and  _233
REMARK   88  A    between atoms: _233  and  _234
REMARK   89  A    between atoms: _233  and  _236
REMARK   90  A    between atoms: _236  and  _237
REMARK   91  A    between atoms: _247  and  _249
REMARK   92  A    between atoms: _249  and  _250
REMARK   93  A    between atoms: _249  and  _252
REMARK   94  A    between atoms: _252  and  _253
REMARK   95  A    between atoms: _256  and  _258
REMARK   96  A    between atoms: _258  and  _259
REMARK   97  A    between atoms: _261  and  _263
REMARK   98  A    between atoms: _263  and  _264
REMARK   99  A    between atoms: _263  and  _266
REMARK  100  A    between atoms: _266  and  _267
REMARK  101  A    between atoms: _267  and  _268
REMARK  102  A    between atoms: _268  and  _269
REMARK  103  A    between atoms: _269  and  _270
REMARK  104  A    between atoms: _274  and  _276
REMARK  105  A    between atoms: _276  and  _277
REMARK  106  A    between atoms: _279  and  _281
REMARK  107  A    between atoms: _281  and  _282
REMARK  108  A    between atoms: _281  and  _284
REMARK  109  A    between atoms: _284  and  _285
REMARK                            x       y       z     vdW  Elec       q    Type
REMARK                         _______ _______ _______ _____ _____    ______ ____
ROOT
ATOM      1  C   GLY A   3      19.232  11.438 -13.307  0.00  0.00    +0.243 C 
ATOM      2  O   GLY A   3      18.923  11.336 -12.152  0.00  0.00    -0.273 OA
ATOM      3  N   ALA A   4      19.661  10.431 -14.062  0.00  0.00    -0.297 N 
ATOM      4  H   ALA A   4      20.026  10.641 -15.013  0.00  0.00    +0.150 HD
ENDROOT
BRANCH   3   5
ATOM      5  CA  ALA A   4      19.641   9.047 -13.611  0.00  0.00    +0.149 C 
ATOM      6  CB  ALA A   4      19.473   8.114 -14.805  0.00  0.00    +0.031 C 
BRANCH   5   7
ATOM      7  C   ALA A   4      20.872   8.635 -12.815  0.00  0.00    +0.241 C 
ATOM      8  O   ALA A   4      20.917   7.534 -12.303  0.00  0.00    -0.273 OA
ATOM      9  N   TYR A   5      21.855   9.523 -12.674  0.00  0.00    -0.297 N 
ATOM     10  H   TYR A   5      21.760  10.462 -13.112  0.00  0.00    +0.150 HD
BRANCH   9  11
ATOM     11  CA  TYR A   5      23.049   9.210 -11.927  0.00  0.00    +0.153 C 
BRANCH  11  12
ATOM     12  C   TYR A   5      22.777   8.638 -10.549  0.00  0.00    +0.241 C 
ATOM     13  O   TYR A   5      21.984   9.181  -9.776  0.00  0.00    -0.273 OA
ATOM     14  N   THR A   6      23.476   7.549 -10.236  0.00  0.00    -0.296 N 
ATOM     15  H   THR A   6      23.955   7.034 -11.003  0.00  0.00    +0.150 HD
BRANCH  14  16
ATOM     16  CA  THR A   6      23.606   7.041  -8.882  0.00  0.00    +0.164 C 
BRANCH  16  17
ATOM     17  C   THR A   6      25.089   6.710  -8.669  0.00  0.00    +0.229 C 
ATOM     18  O   THR A   6      25.816   6.437  -9.626  0.00  0.00    -0.286 OA
ENDBRANCH  16  17
BRANCH  16  19
ATOM     19  CB  THR A   6      22.766   5.752  -8.653  0.00  0.00    +0.136 C 
ATOM     20  CG2 THR A   6      21.287   6.066  -8.768  0.00  0.00    +0.034 C 
BRANCH  19  21
ATOM     21  OG1 THR A   6      23.092   4.763  -9.618  0.00  0.00    -0.382 OA
ATOM     22  HG1 THR A   6      22.902   5.113 -10.524  0.00  0.00    +0.210 HD
ENDBRANCH  19  21
ENDBRANCH  16  19
ENDBRANCH  14  16
ENDBRANCH  11  12
BRANCH  11  23
ATOM     23  CB  TYR A   5      23.932  10.440 -11.753  0.00  0.00    +0.055 C 
BRANCH  23  24
ATOM     24  CG  TYR A   5      25.174  10.188 -10.961  0.00  0.00    -0.020 A 
ATOM     25  CD2 TYR A   5      25.195  10.334  -9.595  0.00  0.00    -0.001 A 
ATOM     26  CE2 TYR A   5      26.350  10.048  -8.872  0.00  0.00    +0.036 A 
ATOM     27  CZ  TYR A   5      27.505   9.662  -9.527  0.00  0.00    +0.134 A 
ATOM     28  CE1 TYR A   5      27.488   9.499 -10.868  0.00  0.00    +0.036 A 
ATOM     29  CD1 TYR A   5      26.342   9.778 -11.587  0.00  0.00    -0.001 A 
BRANCH  27  30
ATOM     30  OH  TYR A   5      28.636   9.383  -8.800  0.00  0.00    -0.506 OA
ATOM     31  HH  TYR A   5      28.904  10.186  -8.287  0.00  0.00    +0.292 HD
ENDBRANCH  27  30
ENDBRANCH  23  24
ENDBRANCH  11  23
ENDBRANCH   9  11
ENDBRANCH   5   7
ENDBRANCH   3   5
BRANCH   1  32
ATOM     32  CA  GLY A   3      19.260  12.784 -13.973  0.00  0.00    +0.176 C 
BRANCH  32  34
ATOM     33  C   LYS A   2      17.408  14.158 -13.265  0.00  0.00    +0.241 C 
ATOM     34  N   GLY A   3      18.701  13.855 -13.193  0.00  0.00    -0.295 N 
ATOM     35  H   GLY A   3      19.319  14.403 -12.561  0.00  0.00    +0.150 HD
ATOM     36  O   LYS A   2      16.610  13.564 -14.002  0.00  0.00    -0.273 OA
BRANCH  33  37
ATOM     37  CA  LYS A   2      16.956  15.289 -12.363  0.00  0.00    +0.149 C 
BRANCH  37  39
ATOM     38  C   THR A   1      16.634  17.023 -14.032  0.00  0.00    +0.241 C 
ATOM     39  N   LYS A   2      16.126  16.208 -13.126  0.00  0.00    -0.297 N 
ATOM     40  H   LYS A   2      15.101  16.224 -12.953  0.00  0.00    +0.150 HD
ATOM     41  O   THR A   1      17.829  17.116 -14.244  0.00  0.00    -0.274 OA
BRANCH  38  42
ATOM     42  CA  THR A   1      15.646  17.881 -14.790  0.00  0.00    +0.172 C 
BRANCH  42  43
ATOM     43  CB  THR A   1      15.030  17.000 -15.889  0.00  0.00    +0.135 C 
ATOM     44  CG2 THR A   1      13.985  17.756 -16.665  0.00  0.00    +0.034 C 
BRANCH  43  45
ATOM     45  OG1 THR A   1      16.058  16.547 -16.764  0.00  0.00    -0.383 OA
ATOM     46  HG1 THR A   1      16.506  17.327 -17.177  0.00  0.00    +0.210 HD
ENDBRANCH  43  45
ENDBRANCH  42  43
BRANCH  42  47
ATOM     47  N   THR A   1      16.322  19.050 -15.324  0.00  0.00    -0.236 NA
ATOM     48  H   THR A   1      17.267  18.941 -15.744  0.00  0.00    +0.142 HD
ENDBRANCH  42  47
ENDBRANCH  38  42
ENDBRANCH  37  39
BRANCH  37  49
ATOM     49  CB  LYS A   2      16.232  14.745 -11.127  0.00  0.00    +0.029 C 
BRANCH  49  50
ATOM     50  CG  LYS A   2      17.103  13.885 -10.218  0.00  0.00    +0.000 C 
BRANCH  50  51
ATOM     51  CD  LYS A   2      16.399  13.454  -8.934  0.00  0.00    -0.024 C 
BRANCH  51  52
ATOM     52  CE  LYS A   2      16.053  14.653  -8.053  0.00  0.00    -0.086 C 
BRANCH  52  53
ATOM     53  NZ  LYS A   2      15.539  14.341  -6.665  0.00  0.00    +0.380 N 
ATOM     54  HZ1 LYS A   2      16.259  13.801  -6.143  0.00  0.00    -0.089 HD
ATOM     55  HZ2 LYS A   2      15.339  15.230  -6.163  0.00  0.00    -0.089 HD
ATOM     56  HZ3 LYS A   2      14.667  13.779  -6.738  0.00  0.00    -0.089 HD
ENDBRANCH  52  53
ENDBRANCH  51  52
ENDBRANCH  50  51
ENDBRANCH  49  50
ENDBRANCH  37  49
ENDBRANCH  33  37
ENDBRANCH  32  34
ENDBRANCH   1  32
TORSDOF 24
REMARK  Name = ../refined-set-2016/3zi8/3zi8_pocket.pdb
REMARK  109 active torsions:
REMARK  status: ('A' for Active; 'I' for Inactive)
REMARK    1  A    between atoms: _1  and  _3
REMARK    2  A    between atoms: _3  and  _4
REMARK    3  A    between atoms: _3  and  _6
REMARK    4  A    between atoms: _6  and  _7
REMARK    5  A    between atoms: _10  and  _12
REMARK    6  A    between atoms: _12  and  _13
REMARK    7  A    between atoms: _12  and  _15
REMARK    8  A    between atoms: _15  and  _16
REMARK    9  A    between atoms: _26  and  _28
REMARK   10  A    between atoms: _28  and  _29
REMARK   11  A    between atoms: _28  and  _31
REMARK   12  A    between atoms: _31  and  _32
REMARK   13  A    between atoms: _37  and  _39
REMARK   14  A    between atoms: _39  and  _40
REMARK   15  A    between atoms: _39  and  _42
REMARK   16  A    between atoms: _42  and  _43
REMARK   17  A    between atoms: _46  and  _48
REMARK   18  A    between atoms: _48  and  _49
REMARK   19  A    between atoms: _48  and  _51
REMARK   20  A    between atoms: _51  and  _52
REMARK   21  A    between atoms: _52  and  _53
REMARK   22  A    between atoms: _53  and  _54
REMARK   23  A    between atoms: _63  and  _65
REMARK   24  A    between atoms: _65  and  _66
REMARK   25  A    between atoms: _65  and  _68
REMARK   26  A    between atoms: _71  and  _73
REMARK   27  A    between atoms: _73  and  _74
REMARK   28  A    between atoms: _73  and  _76
REMARK   29  A    between atoms: _76  and  _77
REMARK   30  A    between atoms: _82  and  _83
REMARK   31  A    between atoms: _85  and  _87
REMARK   32  A    between atoms: _87  and  _88
REMARK   33  A    between atoms: _87  and  _90
REMARK   34  A    between atoms: _90  and  _91
REMARK   35  A    between atoms: _91  and  _92
REMARK   36  A    between atoms: _95  and  _97
REMARK   37  A    between atoms: _97  and  _98
REMARK   38  A    between atoms: _97  and  _100
REMARK   39  A    between atoms: _100  and  _101
REMARK   40  A    between atoms: _111  and  _113
REMARK   41  A    between atoms: _113  and  _114
REMARK   42  A    between atoms: _113  and  _116
REMARK   43  A    between atoms: _118  and  _120
REMARK   44  A    between atoms: _120  and  _121
REMARK   45  A    between atoms: _120  and  _123
REMARK   46  A    between atoms: _123  and  _124
REMARK   47  A    between atoms: _134  and  _136
REMARK   48  A    between atoms: _136  and  _137
REMARK   49  A    between atoms: _136  and  _139
REMARK   50  A    between atoms: _139  and  _140
REMARK   51  A    between atoms: _143  and  _145
REMARK   52  A    between atoms: _145  and  _146
REMARK   53  A    between atoms: _145  and  _148
REMARK   54  A    between atoms: _148  and  _149
REMARK   55  A    between atoms: _152  and  _154
REMARK   56  A    between atoms: _154  and  _155
REMARK   57  A    between atoms: _154  and  _157
REMARK   58  A    between atoms: _157  and  _158
REMARK   59  A    between atoms: _158  and  _159
REMARK   60  A    between atoms: _159  and  _160
REMARK   61  A    between atoms: _160  and  _161
REMARK   62  A    between atoms: _165  and  _167
REMARK   63  A    between atoms: _167  and  _168
REMARK   64  A    between atoms: _170  and  _172
REMARK   65  A    between atoms: _172  and  _173
REMARK   66  A    between atoms: _176  and  _178
REMARK   67  A    between atoms: _178  and  _179
REMARK   68  A    between atoms: _178  and  _181
REMARK   69  A    between atoms: _181  and  _182
REMARK   70  A    between atoms: _187  and  _188
REMARK   71  A    between atoms: _190  and  _192
REMARK   72  A    between atoms: _192  and  _193
REMARK   73  A    between atoms: _192  and  _195
REMARK   74  A    between atoms: _195  and  _196
REMARK   75  A    between atoms: _199  and  _201
REMARK   76  A    between atoms: _201  and  _202
REMARK   77  A    between atoms: _201  and  _204
REMARK   78  A    between atoms: _208  and  _209
REMARK   79  A    between atoms: _214  and  _216
REMARK   80  A    between atoms: _216  and  _217
REMARK   81  A    between atoms: _216  and  _219
REMARK   82  A    between atoms: _219  and  _220
REMARK   83  A    between atoms: _222  and  _224
REMARK   84  A    between atoms: _224  and  _225
REMARK   85  A    between atoms: _224  and  _227
REMARK   86  A    between atoms: _227  and  _228
REMARK   87  A    between atoms: _231  and  _233
REMARK   88  A    between atoms: _233  and  _234
REMARK   89  A    between atoms: _233  and  _236
REMARK   90  A    between atoms: _236  and  _237
REMARK   91  A    between atoms: _247  and  _249
REMARK   92  A    between atoms: _249  and  _250
REMARK   93  A    between atoms: _249  and  _252
REMARK   94  A    between atoms: _252  and  _253
REMARK   95  A    between atoms: _256  and  _258
REMARK   96  A    between atoms: _258  and  _259
REMARK   97  A    between atoms: _261  and  _263
REMARK   98  A    between atoms: _263  and  _264
REMARK   99  A    between atoms: _263  and  _266
REMARK  100  A    between atoms: _266  and  _267
REMARK  101  A    between atoms: _267  and  _268
REMARK  102  A    between atoms: _268  and  _269
REMARK  103  A    between atoms: _269  and  _270
REMARK  104  A    between atoms: _274  and  _276
REMARK  105  A    between atoms: _276  and  _277
REMARK  106  A    between atoms: _279  and  _281
REMARK  107  A    between atoms: _281  and  _282
REMARK  108  A    between atoms: _281  and  _284
REMARK  109  A    between atoms: _284  and  _285
REMARK                            x       y       z     vdW  Elec       q    Type
REMARK                         _______ _______ _______ _____ _____    ______ ____
ROOT
ATOM      1  C   PRO A   2      28.547  11.030 -24.013  0.00  0.00    +0.241 C 
ATOM      2  O   PRO A   2      27.498  10.655 -23.490  0.00  0.00    -0.273 OA
ATOM      3  N   SER A   3      29.754  10.703 -23.617  0.00  0.00    -0.295 N 
ATOM      4  H   SER A   3      30.553  11.058 -24.180  0.00  0.00    +0.150 HD
ENDROOT
BRANCH   1   7
ATOM      5  C   VAL A   1      26.819  11.481 -26.891  0.00  0.00    +0.241 C 
ATOM      6  N   PRO A   2      27.306  12.123 -25.833  0.00  0.00    -0.272 N 
ATOM      7  CA  PRO A   2      28.576  11.931 -25.219  0.00  0.00    +0.152 C 
ATOM      8  CB  PRO A   2      28.986  13.336 -24.795  0.00  0.00    +0.031 C 
ATOM      9  CG  PRO A   2      27.706  14.070 -24.627  0.00  0.00    +0.024 C 
ATOM     10  CD  PRO A   2      26.614  13.303 -25.304  0.00  0.00    +0.094 C 
ATOM     11  O   VAL A   1      25.649  11.604 -27.229  0.00  0.00    -0.273 OA
BRANCH   5  12
ATOM     12  CA  VAL A   1      27.751  10.545 -27.666  0.00  0.00    +0.145 C 
BRANCH  12  13
ATOM     13  CB  VAL A   1      28.251   9.433 -26.753  0.00  0.00    +0.025 C 
ATOM     14  CG2 VAL A   1      29.721   9.622 -26.485  0.00  0.00    +0.002 C 
ATOM     15  CG1 VAL A   1      28.015   8.101 -27.446  0.00  0.00    +0.002 C 
ENDBRANCH  12  13
BRANCH  12  16
ATOM     16  N   VAL A   1      28.869  11.151 -28.382  0.00  0.00    -0.238 NA
ATOM     17  H   VAL A   1      29.793  11.178 -27.906  0.00  0.00    +0.142 HD
ENDBRANCH  12  16
ENDBRANCH   5  12
ENDBRANCH   1   7
BRANCH   3  18
ATOM     18  CA  SER A   3      30.059   9.905 -22.485  0.00  0.00    +0.178 C 
BRANCH  18  19
ATOM     19  C   SER A   3      30.423  10.830 -21.335  0.00  0.00    +0.243 C 
ATOM     20  N   ILE A   4      30.256  10.354 -20.107  0.00  0.00    -0.298 N 
ATOM     21  H   ILE A   4      29.890   9.388 -19.987  0.00  0.00    +0.150 HD
ATOM     22  O   SER A   3      30.883  11.957 -21.563  0.00  0.00    -0.273 OA
BRANCH  20  23
ATOM     23  CA  ILE A   4      30.572  11.148 -18.914  0.00  0.00    +0.137 C 
BRANCH  23  24
ATOM     24  C   ILE A   4      31.325  10.254 -17.947  0.00  0.00    +0.227 C 
ATOM     25  O   ILE A   4      31.017   9.076 -17.858  0.00  0.00    -0.286 OA
ENDBRANCH  23  24
BRANCH  23  26
ATOM     26  CB  ILE A   4      29.305  11.652 -18.179  0.00  0.00    +0.026 C 
ATOM     27  CG2 ILE A   4      29.652  12.572 -16.992  0.00  0.00    +0.002 C 
BRANCH  26  28
ATOM     28  CG1 ILE A   4      28.335  12.345 -19.151  0.00  0.00    +0.002 C 
ATOM     29  CD1 ILE A   4      26.969  12.578 -18.564  0.00  0.00    +0.000 C 
ENDBRANCH  26  28
ENDBRANCH  23  26
ENDBRANCH  20  23
ENDBRANCH  18  19
BRANCH  18  30
ATOM     30  CB  SER A   3      31.230   9.049 -22.862  0.00  0.00    +0.166 C 
BRANCH  30  31
ATOM     31  OG  SER A   3      30.795   8.160 -23.922  0.00  0.00    -0.380 OA
ATOM     32  H   SER A   3      31.549   7.579 -24.194  0.00  0.00    +0.211 HD
ENDBRANCH  30  31
ENDBRANCH  18  30
ENDBRANCH   3  18
TORSDOF 12
REMARK  Name = ../refined-set-2016/3zi8/3zi8_pocket.pdb
REMARK  109 active torsions:
REMARK  status: ('A' for Active; 'I' for Inactive)
REMARK    1  A    between atoms: _1  and  _3
REMARK    2  A    between atoms: _3  and  _4
REMARK    3  A    between atoms: _3  and  _6
REMARK    4  A    between atoms: _6  and  _7
REMARK    5  A    between atoms: _10  and  _12
REMARK    6  A    between atoms: _12  and  _13
REMARK    7  A    between atoms: _12  and  _15
REMARK    8  A    between atoms: _15  and  _16
REMARK    9  A    between atoms: _26  and  _28
REMARK   10  A    between atoms: _28  and  _29
REMARK   11  A    between atoms: _28  and  _31
REMARK   12  A    between atoms: _31  and  _32
REMARK   13  A    between atoms: _37  and  _39
REMARK   14  A    between atoms: _39  and  _40
REMARK   15  A    between atoms: _39  and  _42
REMARK   16  A    between atoms: _42  and  _43
REMARK   17  A    between atoms: _46  and  _48
REMARK   18  A    between atoms: _48  and  _49
REMARK   19  A    between atoms: _48  and  _51
REMARK   20  A    between atoms: _51  and  _52
REMARK   21  A    between atoms: _52  and  _53
REMARK   22  A    between atoms: _53  and  _54
REMARK   23  A    between atoms: _63  and  _65
REMARK   24  A    between atoms: _65  and  _66
REMARK   25  A    between atoms: _65  and  _68
REMARK   26  A    between atoms: _71  and  _73
REMARK   27  A    between atoms: _73  and  _74
REMARK   28  A    between atoms: _73  and  _76
REMARK   29  A    between atoms: _76  and  _77
REMARK   30  A    between atoms: _82  and  _83
REMARK   31  A    between atoms: _85  and  _87
REMARK   32  A    between atoms: _87  and  _88
REMARK   33  A    between atoms: _87  and  _90
REMARK   34  A    between atoms: _90  and  _91
REMARK   35  A    between atoms: _91  and  _92
REMARK   36  A    between atoms: _95  and  _97
REMARK   37  A    between atoms: _97  and  _98
REMARK   38  A    between atoms: _97  and  _100
REMARK   39  A    between atoms: _100  and  _101
REMARK   40  A    between atoms: _111  and  _113
REMARK   41  A    between atoms: _113  and  _114
REMARK   42  A    between atoms: _113  and  _116
REMARK   43  A    between atoms: _118  and  _120
REMARK   44  A    between atoms: _120  and  _121
REMARK   45  A    between atoms: _120  and  _123
REMARK   46  A    between atoms: _123  and  _124
REMARK   47  A    between atoms: _134  and  _136
REMARK   48  A    between atoms: _136  and  _137
REMARK   49  A    between atoms: _136  and  _139
REMARK   50  A    between atoms: _139  and  _140
REMARK   51  A    between atoms: _143  and  _145
REMARK   52  A    between atoms: _145  and  _146
REMARK   53  A    between atoms: _145  and  _148
REMARK   54  A    between atoms: _148  and  _149
REMARK   55  A    between atoms: _152  and  _154
REMARK   56  A    between atoms: _154  and  _155
REMARK   57  A    between atoms: _154  and  _157
REMARK   58  A    between atoms: _157  and  _158
REMARK   59  A    between atoms: _158  and  _159
REMARK   60  A    between atoms: _159  and  _160
REMARK   61  A    between atoms: _160  and  _161
REMARK   62  A    between atoms: _165  and  _167
REMARK   63  A    between atoms: _167  and  _168
REMARK   64  A    between atoms: _170  and  _172
REMARK   65  A    between atoms: _172  and  _173
REMARK   66  A    between atoms: _176  and  _178
REMARK   67  A    between atoms: _178  and  _179
REMARK   68  A    between atoms: _178  and  _181
REMARK   69  A    between atoms: _181  and  _182
REMARK   70  A    between atoms: _187  and  _188
REMARK   71  A    between atoms: _190  and  _192
REMARK   72  A    between atoms: _192  and  _193
REMARK   73  A    between atoms: _192  and  _195
REMARK   74  A    between atoms: _195  and  _196
REMARK   75  A    between atoms: _199  and  _201
REMARK   76  A    between atoms: _201  and  _202
REMARK   77  A    between atoms: _201  and  _204
REMARK   78  A    between atoms: _208  and  _209
REMARK   79  A    between atoms: _214  and  _216
REMARK   80  A    between atoms: _216  and  _217
REMARK   81  A    between atoms: _216  and  _219
REMARK   82  A    between atoms: _219  and  _220
REMARK   83  A    between atoms: _222  and  _224
REMARK   84  A    between atoms: _224  and  _225
REMARK   85  A    between atoms: _224  and  _227
REMARK   86  A    between atoms: _227  and  _228
REMARK   87  A    between atoms: _231  and  _233
REMARK   88  A    between atoms: _233  and  _234
REMARK   89  A    between atoms: _233  and  _236
REMARK   90  A    between atoms: _236  and  _237
REMARK   91  A    between atoms: _247  and  _249
REMARK   92  A    between atoms: _249  and  _250
REMARK   93  A    between atoms: _249  and  _252
REMARK   94  A    between atoms: _252  and  _253
REMARK   95  A    between atoms: _256  and  _258
REMARK   96  A    between atoms: _258  and  _259
REMARK   97  A    between atoms: _261  and  _263
REMARK   98  A    between atoms: _263  and  _264
REMARK   99  A    between atoms: _263  and  _266
REMARK  100  A    between atoms: _266  and  _267
REMARK  101  A    between atoms: _267  and  _268
REMARK  102  A    between atoms: _268  and  _269
REMARK  103  A    between atoms: _269  and  _270
REMARK  104  A    between atoms: _274  and  _276
REMARK  105  A    between atoms: _276  and  _277
REMARK  106  A    between atoms: _279  and  _281
REMARK  107  A    between atoms: _281  and  _282
REMARK  108  A    between atoms: _281  and  _284
REMARK  109  A    between atoms: _284  and  _285
REMARK                            x       y       z     vdW  Elec       q    Type
REMARK                         _______ _______ _______ _____ _____    ______ ____
ROOT
ATOM      1  C   GLY A   3      23.132   6.233 -22.957  0.00  0.00    +0.243 C 
ATOM      2  N   LYS A   4      23.382   5.146 -22.244  0.00  0.00    -0.297 N 
ATOM      3  H   LYS A   4      24.363   4.959 -21.955  0.00  0.00    +0.150 HD
ATOM      4  O   GLY A   3      21.988   6.566 -23.323  0.00  0.00    -0.273 OA
ENDROOT
BRANCH   2   5
ATOM      5  CA  LYS A   4      22.350   4.200 -21.844  0.00  0.00    +0.149 C 
BRANCH   5   6
ATOM      6  C   LYS A   4      22.206   3.984 -20.340  0.00  0.00    +0.241 C 
ATOM      7  N   GLY A   5      23.324   3.840 -19.643  0.00  0.00    -0.295 N 
ATOM      8  H   GLY A   5      24.243   3.888 -20.128  0.00  0.00    +0.150 HD
ATOM      9  O   LYS A   4      21.084   3.887 -19.809  0.00  0.00    -0.273 OA
BRANCH   7  10
ATOM     10  CA  GLY A   5      23.280   3.619 -18.231  0.00  0.00    +0.176 C 
BRANCH  10  11
ATOM     11  C   GLY A   5      24.587   4.015 -17.583  0.00  0.00    +0.243 C 
ATOM     12  N   TRP A   6      24.545   4.081 -16.261  0.00  0.00    -0.298 N 
ATOM     13  H   TRP A   6      23.629   3.948 -15.787  0.00  0.00    +0.150 HD
ATOM     14  O   GLY A   5      25.562   4.317 -18.275  0.00  0.00    -0.273 OA
BRANCH  12  15
ATOM     15  CA  TRP A   6      25.722   4.331 -15.438  0.00  0.00    +0.141 C 
BRANCH  15  16
ATOM     16  C   TRP A   6      26.311   3.018 -14.994  0.00  0.00    +0.227 C 
ATOM     17  O   TRP A   6      25.595   2.113 -14.553  0.00  0.00    -0.286 OA
ENDBRANCH  15  16
BRANCH  15  18
ATOM     18  CB  TRP A   6      25.358   5.165 -14.212  0.00  0.00    +0.056 C 
BRANCH  18  19
ATOM     19  CG  TRP A   6      25.030   6.590 -14.570  0.00  0.00    -0.002 A 
ATOM     20  CD2 TRP A   6      25.955   7.660 -14.727  0.00  0.00    +0.013 A 
ATOM     21  CE3 TRP A   6      27.325   7.767 -14.599  0.00  0.00    +0.001 A 
ATOM     22  CZ3 TRP A   6      27.915   8.987 -14.823  0.00  0.00    +0.000 A 
ATOM     23  CH2 TRP A   6      27.145  10.126 -15.143  0.00  0.00    +0.001 A 
ATOM     24  CZ2 TRP A   6      25.808  10.042 -15.275  0.00  0.00    +0.017 A 
ATOM     25  CE2 TRP A   6      25.212   8.808 -15.050  0.00  0.00    +0.056 A 
ATOM     26  NE1 TRP A   6      23.887   8.445 -15.109  0.00  0.00    -0.352 N 
ATOM     27  HE1 TRP A   6      23.093   9.077 -15.337  0.00  0.00    +0.166 HD
ATOM     28  CD1 TRP A   6      23.788   7.104 -14.816  0.00  0.00    +0.068 A 
ENDBRANCH  18  19
ENDBRANCH  15  18
ENDBRANCH  12  15
ENDBRANCH  10  11
ENDBRANCH   7  10
ENDBRANCH   5   6
BRANCH   5  29
ATOM     29  CB  LYS A   4      22.643   2.870 -22.548  0.00  0.00    +0.029 C 
BRANCH  29  30
ATOM     30  CG  LYS A   4      21.662   1.758 -22.225  0.00  0.00    +0.000 C 
BRANCH  30  31
ATOM     31  CD  LYS A   4      21.703   0.640 -23.257  0.00  0.00    -0.024 C 
BRANCH  31  32
ATOM     32  CE  LYS A   4      20.345  -0.048 -23.370  0.00  0.00    -0.086 C 
BRANCH  32  33
ATOM     33  NZ  LYS A   4      19.379   0.674 -24.283  0.00  0.00    +0.380 N 
ATOM     34  HZ1 LYS A   4      19.214   1.635 -23.921  0.00  0.00    -0.089 HD
ATOM     35  HZ2 LYS A   4      18.479   0.154 -24.314  0.00  0.00    -0.089 HD
ATOM     36  HZ3 LYS A   4      19.783   0.728 -25.240  0.00  0.00    -0.089 HD
ENDBRANCH  32  33
ENDBRANCH  31  32
ENDBRANCH  30  31
ENDBRANCH  29  30
ENDBRANCH   5  29
ENDBRANCH   2   5
BRANCH   1  37
ATOM     37  CA  GLY A   3      24.330   7.096 -23.307  0.00  0.00    +0.176 C 
BRANCH  37  39
ATOM     38  C   ASP A   2      26.517   6.045 -23.038  0.00  0.00    +0.241 C 
ATOM     39  N   GLY A   3      25.528   6.766 -22.542  0.00  0.00    -0.295 N 
ATOM     40  H   GLY A   3      25.606   7.113 -21.565  0.00  0.00    +0.150 HD
ATOM     41  O   ASP A   2      26.515   5.622 -24.186  0.00  0.00    -0.273 OA
BRANCH  38  42
ATOM     42  CA  ASP A   2      27.658   5.706 -22.089  0.00  0.00    +0.160 C 
BRANCH  42  45
ATOM     43  C   TRP A   1      28.076   6.922 -20.015  0.00  0.00    +0.239 C 
ATOM     44  O   TRP A   1      28.958   7.598 -20.501  0.00  0.00    -0.274 OA
ATOM     45  N   ASP A   2      27.374   6.024 -20.707  0.00  0.00    -0.297 N 
ATOM     46  H   ASP A   2      26.590   5.532 -20.233  0.00  0.00    +0.150 HD
BRANCH  43  47
ATOM     47  CA  TRP A   1      27.715   7.061 -18.561  0.00  0.00    +0.149 C 
BRANCH  47  48
ATOM     48  N   TRP A   1      28.956   7.042 -17.752  0.00  0.00    -0.238 NA
ATOM     49  H   TRP A   1      29.631   7.821 -17.892  0.00  0.00    +0.142 HD
ENDBRANCH  47  48
BRANCH  47  50
ATOM     50  CB  TRP A   1      27.027   8.410 -18.358  0.00  0.00    +0.054 C 
BRANCH  50  51
ATOM     51  CG  TRP A   1      25.864   8.668 -19.297  0.00  0.00    -0.002 A 
ATOM     52  CD2 TRP A   1      24.551   8.148 -19.193  0.00  0.00    +0.013 A 
ATOM     53  CE3 TRP A   1      23.912   7.352 -18.273  0.00  0.00    +0.001 A 
ATOM     54  CZ3 TRP A   1      22.590   7.053 -18.460  0.00  0.00    +0.000 A 
ATOM     55  CH2 TRP A   1      21.878   7.525 -19.563  0.00  0.00    +0.001 A 
ATOM     56  CZ2 TRP A   1      22.469   8.331 -20.494  0.00  0.00    +0.017 A 
ATOM     57  CE2 TRP A   1      23.812   8.656 -20.282  0.00  0.00    +0.056 A 
ATOM     58  NE1 TRP A   1      24.659   9.391 -21.049  0.00  0.00    -0.352 N 
ATOM     59  HE1 TRP A   1      24.417   9.850 -21.950  0.00  0.00    +0.166 HD
ATOM     60  CD1 TRP A   1      25.878   9.427 -20.442  0.00  0.00    +0.068 A 
ENDBRANCH  50  51
ENDBRANCH  47  50
ENDBRANCH  43  47
ENDBRANCH  42  45
BRANCH  42  61
ATOM     61  CB  ASP A   2      27.978   4.220 -22.188  0.00  0.00    +0.143 C 
BRANCH  61  62
ATOM     62  CG  ASP A   2      26.779   3.318 -21.821  0.00  0.00    +0.367 C 
ATOM     63  OD2 ASP A   2      25.751   3.805 -21.329  0.00  0.00    -0.246 OA
ATOM     64  OD1 ASP A   2      26.880   2.072 -22.038  0.00  0.00    -0.246 OA
ENDBRANCH  61  62
ENDBRANCH  42  61
ENDBRANCH  38  42
ENDBRANCH  37  39
ENDBRANCH   1  37
TORSDOF 23
REMARK  Name = ../refined-set-2016/3zi8/3zi8_pocket.pdb
REMARK  109 active torsions:
REMARK  status: ('A' for Active; 'I' for Inactive)
REMARK    1  A    between atoms: _1  and  _3
REMARK    2  A    between atoms: _3  and  _4
REMARK    3  A    between atoms: _3  and  _6
REMARK    4  A    between atoms: _6  and  _7
REMARK    5  A    between atoms: _10  and  _12
REMARK    6  A    between atoms: _12  and  _13
REMARK    7  A    between atoms: _12  and  _15
REMARK    8  A    between atoms: _15  and  _16
REMARK    9  A    between atoms: _26  and  _28
REMARK   10  A    between atoms: _28  and  _29
REMARK   11  A    between atoms: _28  and  _31
REMARK   12  A    between atoms: _31  and  _32
REMARK   13  A    between atoms: _37  and  _39
REMARK   14  A    between atoms: _39  and  _40
REMARK   15  A    between atoms: _39  and  _42
REMARK   16  A    between atoms: _42  and  _43
REMARK   17  A    between atoms: _46  and  _48
REMARK   18  A    between atoms: _48  and  _49
REMARK   19  A    between atoms: _48  and  _51
REMARK   20  A    between atoms: _51  and  _52
REMARK   21  A    between atoms: _52  and  _53
REMARK   22  A    between atoms: _53  and  _54
REMARK   23  A    between atoms: _63  and  _65
REMARK   24  A    between atoms: _65  and  _66
REMARK   25  A    between atoms: _65  and  _68
REMARK   26  A    between atoms: _71  and  _73
REMARK   27  A    between atoms: _73  and  _74
REMARK   28  A    between atoms: _73  and  _76
REMARK   29  A    between atoms: _76  and  _77
REMARK   30  A    between atoms: _82  and  _83
REMARK   31  A    between atoms: _85  and  _87
REMARK   32  A    between atoms: _87  and  _88
REMARK   33  A    between atoms: _87  and  _90
REMARK   34  A    between atoms: _90  and  _91
REMARK   35  A    between atoms: _91  and  _92
REMARK   36  A    between atoms: _95  and  _97
REMARK   37  A    between atoms: _97  and  _98
REMARK   38  A    between atoms: _97  and  _100
REMARK   39  A    between atoms: _100  and  _101
REMARK   40  A    between atoms: _111  and  _113
REMARK   41  A    between atoms: _113  and  _114
REMARK   42  A    between atoms: _113  and  _116
REMARK   43  A    between atoms: _118  and  _120
REMARK   44  A    between atoms: _120  and  _121
REMARK   45  A    between atoms: _120  and  _123
REMARK   46  A    between atoms: _123  and  _124
REMARK   47  A    between atoms: _134  and  _136
REMARK   48  A    between atoms: _136  and  _137
REMARK   49  A    between atoms: _136  and  _139
REMARK   50  A    between atoms: _139  and  _140
REMARK   51  A    between atoms: _143  and  _145
REMARK   52  A    between atoms: _145  and  _146
REMARK   53  A    between atoms: _145  and  _148
REMARK   54  A    between atoms: _148  and  _149
REMARK   55  A    between atoms: _152  and  _154
REMARK   56  A    between atoms: _154  and  _155
REMARK   57  A    between atoms: _154  and  _157
REMARK   58  A    between atoms: _157  and  _158
REMARK   59  A    between atoms: _158  and  _159
REMARK   60  A    between atoms: _159  and  _160
REMARK   61  A    between atoms: _160  and  _161
REMARK   62  A    between atoms: _165  and  _167
REMARK   63  A    between atoms: _167  and  _168
REMARK   64  A    between atoms: _170  and  _172
REMARK   65  A    between atoms: _172  and  _173
REMARK   66  A    between atoms: _176  and  _178
REMARK   67  A    between atoms: _178  and  _179
REMARK   68  A    between atoms: _178  and  _181
REMARK   69  A    between atoms: _181  and  _182
REMARK   70  A    between atoms: _187  and  _188
REMARK   71  A    between atoms: _190  and  _192
REMARK   72  A    between atoms: _192  and  _193
REMARK   73  A    between atoms: _192  and  _195
REMARK   74  A    between atoms: _195  and  _196
REMARK   75  A    between atoms: _199  and  _201
REMARK   76  A    between atoms: _201  and  _202
REMARK   77  A    between atoms: _201  and  _204
REMARK   78  A    between atoms: _208  and  _209
REMARK   79  A    between atoms: _214  and  _216
REMARK   80  A    between atoms: _216  and  _217
REMARK   81  A    between atoms: _216  and  _219
REMARK   82  A    between atoms: _219  and  _220
REMARK   83  A    between atoms: _222  and  _224
REMARK   84  A    between atoms: _224  and  _225
REMARK   85  A    between atoms: _224  and  _227
REMARK   86  A    between atoms: _227  and  _228
REMARK   87  A    between atoms: _231  and  _233
REMARK   88  A    between atoms: _233  and  _234
REMARK   89  A    between atoms: _233  and  _236
REMARK   90  A    between atoms: _236  and  _237
REMARK   91  A    between atoms: _247  and  _249
REMARK   92  A    between atoms: _249  and  _250
REMARK   93  A    between atoms: _249  and  _252
REMARK   94  A    between atoms: _252  and  _253
REMARK   95  A    between atoms: _256  and  _258
REMARK   96  A    between atoms: _258  and  _259
REMARK   97  A    between atoms: _261  and  _263
REMARK   98  A    between atoms: _263  and  _264
REMARK   99  A    between atoms: _263  and  _266
REMARK  100  A    between atoms: _266  and  _267
REMARK  101  A    between atoms: _267  and  _268
REMARK  102  A    between atoms: _268  and  _269
REMARK  103  A    between atoms: _269  and  _270
REMARK  104  A    between atoms: _274  and  _276
REMARK  105  A    between atoms: _276  and  _277
REMARK  106  A    between atoms: _279  and  _281
REMARK  107  A    between atoms: _281  and  _282
REMARK  108  A    between atoms: _281  and  _284
REMARK  109  A    between atoms: _284  and  _285
REMARK                            x       y       z     vdW  Elec       q    Type
REMARK                         _______ _______ _______ _____ _____    ______ ____
ROOT
ATOM      1  O   HOH     1      23.128  15.377 -25.661  0.00  0.00    +0.000 OA
ENDROOT
TORSDOF 0
REMARK  Name = ../refined-set-2016/3zi8/3zi8_pocket.pdb
REMARK  109 active torsions:
REMARK  status: ('A' for Active; 'I' for Inactive)
REMARK    1  A    between atoms: _1  and  _3
REMARK    2  A    between atoms: _3  and  _4
REMARK    3  A    between atoms: _3  and  _6
REMARK    4  A    between atoms: _6  and  _7
REMARK    5  A    between atoms: _10  and  _12
REMARK    6  A    between atoms: _12  and  _13
REMARK    7  A    between atoms: _12  and  _15
REMARK    8  A    between atoms: _15  and  _16
REMARK    9  A    between atoms: _26  and  _28
REMARK   10  A    between atoms: _28  and  _29
REMARK   11  A    between atoms: _28  and  _31
REMARK   12  A    between atoms: _31  and  _32
REMARK   13  A    between atoms: _37  and  _39
REMARK   14  A    between atoms: _39  and  _40
REMARK   15  A    between atoms: _39  and  _42
REMARK   16  A    between atoms: _42  and  _43
REMARK   17  A    between atoms: _46  and  _48
REMARK   18  A    between atoms: _48  and  _49
REMARK   19  A    between atoms: _48  and  _51
REMARK   20  A    between atoms: _51  and  _52
REMARK   21  A    between atoms: _52  and  _53
REMARK   22  A    between atoms: _53  and  _54
REMARK   23  A    between atoms: _63  and  _65
REMARK   24  A    between atoms: _65  and  _66
REMARK   25  A    between atoms: _65  and  _68
REMARK   26  A    between atoms: _71  and  _73
REMARK   27  A    between atoms: _73  and  _74
REMARK   28  A    between atoms: _73  and  _76
REMARK   29  A    between atoms: _76  and  _77
REMARK   30  A    between atoms: _82  and  _83
REMARK   31  A    between atoms: _85  and  _87
REMARK   32  A    between atoms: _87  and  _88
REMARK   33  A    between atoms: _87  and  _90
REMARK   34  A    between atoms: _90  and  _91
REMARK   35  A    between atoms: _91  and  _92
REMARK   36  A    between atoms: _95  and  _97
REMARK   37  A    between atoms: _97  and  _98
REMARK   38  A    between atoms: _97  and  _100
REMARK   39  A    between atoms: _100  and  _101
REMARK   40  A    between atoms: _111  and  _113
REMARK   41  A    between atoms: _113  and  _114
REMARK   42  A    between atoms: _113  and  _116
REMARK   43  A    between atoms: _118  and  _120
REMARK   44  A    between atoms: _120  and  _121
REMARK   45  A    between atoms: _120  and  _123
REMARK   46  A    between atoms: _123  and  _124
REMARK   47  A    between atoms: _134  and  _136
REMARK   48  A    between atoms: _136  and  _137
REMARK   49  A    between atoms: _136  and  _139
REMARK   50  A    between atoms: _139  and  _140
REMARK   51  A    between atoms: _143  and  _145
REMARK   52  A    between atoms: _145  and  _146
REMARK   53  A    between atoms: _145  and  _148
REMARK   54  A    between atoms: _148  and  _149
REMARK   55  A    between atoms: _152  and  _154
REMARK   56  A    between atoms: _154  and  _155
REMARK   57  A    between atoms: _154  and  _157
REMARK   58  A    between atoms: _157  and  _158
REMARK   59  A    between atoms: _158  and  _159
REMARK   60  A    between atoms: _159  and  _160
REMARK   61  A    between atoms: _160  and  _161
REMARK   62  A    between atoms: _165  and  _167
REMARK   63  A    between atoms: _167  and  _168
REMARK   64  A    between atoms: _170  and  _172
REMARK   65  A    between atoms: _172  and  _173
REMARK   66  A    between atoms: _176  and  _178
REMARK   67  A    between atoms: _178  and  _179
REMARK   68  A    between atoms: _178  and  _181
REMARK   69  A    between atoms: _181  and  _182
REMARK   70  A    between atoms: _187  and  _188
REMARK   71  A    between atoms: _190  and  _192
REMARK   72  A    between atoms: _192  and  _193
REMARK   73  A    between atoms: _192  and  _195
REMARK   74  A    between atoms: _195  and  _196
REMARK   75  A    between atoms: _199  and  _201
REMARK   76  A    between atoms: _201  and  _202
REMARK   77  A    between atoms: _201  and  _204
REMARK   78  A    between atoms: _208  and  _209
REMARK   79  A    between atoms: _214  and  _216
REMARK   80  A    between atoms: _216  and  _217
REMARK   81  A    between atoms: _216  and  _219
REMARK   82  A    between atoms: _219  and  _220
REMARK   83  A    between atoms: _222  and  _224
REMARK   84  A    between atoms: _224  and  _225
REMARK   85  A    between atoms: _224  and  _227
REMARK   86  A    between atoms: _227  and  _228
REMARK   87  A    between atoms: _231  and  _233
REMARK   88  A    between atoms: _233  and  _234
REMARK   89  A    between atoms: _233  and  _236
REMARK   90  A    between atoms: _236  and  _237
REMARK   91  A    between atoms: _247  and  _249
REMARK   92  A    between atoms: _249  and  _250
REMARK   93  A    between atoms: _249  and  _252
REMARK   94  A    between atoms: _252  and  _253
REMARK   95  A    between atoms: _256  and  _258
REMARK   96  A    between atoms: _258  and  _259
REMARK   97  A    between atoms: _261  and  _263
REMARK   98  A    between atoms: _263  and  _264
REMARK   99  A    between atoms: _263  and  _266
REMARK  100  A    between atoms: _266  and  _267
REMARK  101  A    between atoms: _267  and  _268
REMARK  102  A    between atoms: _268  and  _269
REMARK  103  A    between atoms: _269  and  _270
REMARK  104  A    between atoms: _274  and  _276
REMARK  105  A    between atoms: _276  and  _277
REMARK  106  A    between atoms: _279  and  _281
REMARK  107  A    between atoms: _281  and  _282
REMARK  108  A    between atoms: _281  and  _284
REMARK  109  A    between atoms: _284  and  _285
REMARK                            x       y       z     vdW  Elec       q    Type
REMARK                         _______ _______ _______ _____ _____    ______ ____
ROOT
ATOM      1  O   HOH     1      18.701  14.710 -19.956  0.00  0.00    +0.000 OA
ENDROOT
TORSDOF 0
REMARK  Name = ../refined-set-2016/3zi8/3zi8_pocket.pdb
REMARK  109 active torsions:
REMARK  status: ('A' for Active; 'I' for Inactive)
REMARK    1  A    between atoms: _1  and  _3
REMARK    2  A    between atoms: _3  and  _4
REMARK    3  A    between atoms: _3  and  _6
REMARK    4  A    between atoms: _6  and  _7
REMARK    5  A    between atoms: _10  and  _12
REMARK    6  A    between atoms: _12  and  _13
REMARK    7  A    between atoms: _12  and  _15
REMARK    8  A    between atoms: _15  and  _16
REMARK    9  A    between atoms: _26  and  _28
REMARK   10  A    between atoms: _28  and  _29
REMARK   11  A    between atoms: _28  and  _31
REMARK   12  A    between atoms: _31  and  _32
REMARK   13  A    between atoms: _37  and  _39
REMARK   14  A    between atoms: _39  and  _40
REMARK   15  A    between atoms: _39  and  _42
REMARK   16  A    between atoms: _42  and  _43
REMARK   17  A    between atoms: _46  and  _48
REMARK   18  A    between atoms: _48  and  _49
REMARK   19  A    between atoms: _48  and  _51
REMARK   20  A    between atoms: _51  and  _52
REMARK   21  A    between atoms: _52  and  _53
REMARK   22  A    between atoms: _53  and  _54
REMARK   23  A    between atoms: _63  and  _65
REMARK   24  A    between atoms: _65  and  _66
REMARK   25  A    between atoms: _65  and  _68
REMARK   26  A    between atoms: _71  and  _73
REMARK   27  A    between atoms: _73  and  _74
REMARK   28  A    between atoms: _73  and  _76
REMARK   29  A    between atoms: _76  and  _77
REMARK   30  A    between atoms: _82  and  _83
REMARK   31  A    between atoms: _85  and  _87
REMARK   32  A    between atoms: _87  and  _88
REMARK   33  A    between atoms: _87  and  _90
REMARK   34  A    between atoms: _90  and  _91
REMARK   35  A    between atoms: _91  and  _92
REMARK   36  A    between atoms: _95  and  _97
REMARK   37  A    between atoms: _97  and  _98
REMARK   38  A    between atoms: _97  and  _100
REMARK   39  A    between atoms: _100  and  _101
REMARK   40  A    between atoms: _111  and  _113
REMARK   41  A    between atoms: _113  and  _114
REMARK   42  A    between atoms: _113  and  _116
REMARK   43  A    between atoms: _118  and  _120
REMARK   44  A    between atoms: _120  and  _121
REMARK   45  A    between atoms: _120  and  _123
REMARK   46  A    between atoms: _123  and  _124
REMARK   47  A    between atoms: _134  and  _136
REMARK   48  A    between atoms: _136  and  _137
REMARK   49  A    between atoms: _136  and  _139
REMARK   50  A    between atoms: _139  and  _140
REMARK   51  A    between atoms: _143  and  _145
REMARK   52  A    between atoms: _145  and  _146
REMARK   53  A    between atoms: _145  and  _148
REMARK   54  A    between atoms: _148  and  _149
REMARK   55  A    between atoms: _152  and  _154
REMARK   56  A    between atoms: _154  and  _155
REMARK   57  A    between atoms: _154  and  _157
REMARK   58  A    between atoms: _157  and  _158
REMARK   59  A    between atoms: _158  and  _159
REMARK   60  A    between atoms: _159  and  _160
REMARK   61  A    between atoms: _160  and  _161
REMARK   62  A    between atoms: _165  and  _167
REMARK   63  A    between atoms: _167  and  _168
REMARK   64  A    between atoms: _170  and  _172
REMARK   65  A    between atoms: _172  and  _173
REMARK   66  A    between atoms: _176  and  _178
REMARK   67  A    between atoms: _178  and  _179
REMARK   68  A    between atoms: _178  and  _181
REMARK   69  A    between atoms: _181  and  _182
REMARK   70  A    between atoms: _187  and  _188
REMARK   71  A    between atoms: _190  and  _192
REMARK   72  A    between atoms: _192  and  _193
REMARK   73  A    between atoms: _192  and  _195
REMARK   74  A    between atoms: _195  and  _196
REMARK   75  A    between atoms: _199  and  _201
REMARK   76  A    between atoms: _201  and  _202
REMARK   77  A    between atoms: _201  and  _204
REMARK   78  A    between atoms: _208  and  _209
REMARK   79  A    between atoms: _214  and  _216
REMARK   80  A    between atoms: _216  and  _217
REMARK   81  A    between atoms: _216  and  _219
REMARK   82  A    between atoms: _219  and  _220
REMARK   83  A    between atoms: _222  and  _224
REMARK   84  A    between atoms: _224  and  _225
REMARK   85  A    between atoms: _224  and  _227
REMARK   86  A    between atoms: _227  and  _228
REMARK   87  A    between atoms: _231  and  _233
REMARK   88  A    between atoms: _233  and  _234
REMARK   89  A    between atoms: _233  and  _236
REMARK   90  A    between atoms: _236  and  _237
REMARK   91  A    between atoms: _247  and  _249
REMARK   92  A    between atoms: _249  and  _250
REMARK   93  A    between atoms: _249  and  _252
REMARK   94  A    between atoms: _252  and  _253
REMARK   95  A    between atoms: _256  and  _258
REMARK   96  A    between atoms: _258  and  _259
REMARK   97  A    between atoms: _261  and  _263
REMARK   98  A    between atoms: _263  and  _264
REMARK   99  A    between atoms: _263  and  _266
REMARK  100  A    between atoms: _266  and  _267
REMARK  101  A    between atoms: _267  and  _268
REMARK  102  A    between atoms: _268  and  _269
REMARK  103  A    between atoms: _269  and  _270
REMARK  104  A    between atoms: _274  and  _276
REMARK  105  A    between atoms: _276  and  _277
REMARK  106  A    between atoms: _279  and  _281
REMARK  107  A    between atoms: _281  and  _282
REMARK  108  A    between atoms: _281  and  _284
REMARK  109  A    between atoms: _284  and  _285
REMARK                            x       y       z     vdW  Elec       q    Type
REMARK                         _______ _______ _______ _____ _____    ______ ____
ROOT
ATOM      1  O   HOH     1      20.837  11.777  -9.934  0.00  0.00    +0.000 OA
ENDROOT
TORSDOF 0
REMARK  Name = ../refined-set-2016/3zi8/3zi8_pocket.pdb
REMARK  109 active torsions:
REMARK  status: ('A' for Active; 'I' for Inactive)
REMARK    1  A    between atoms: _1  and  _3
REMARK    2  A    between atoms: _3  and  _4
REMARK    3  A    between atoms: _3  and  _6
REMARK    4  A    between atoms: _6  and  _7
REMARK    5  A    between atoms: _10  and  _12
REMARK    6  A    between atoms: _12  and  _13
REMARK    7  A    between atoms: _12  and  _15
REMARK    8  A    between atoms: _15  and  _16
REMARK    9  A    between atoms: _26  and  _28
REMARK   10  A    between atoms: _28  and  _29
REMARK   11  A    between atoms: _28  and  _31
REMARK   12  A    between atoms: _31  and  _32
REMARK   13  A    between atoms: _37  and  _39
REMARK   14  A    between atoms: _39  and  _40
REMARK   15  A    between atoms: _39  and  _42
REMARK   16  A    between atoms: _42  and  _43
REMARK   17  A    between atoms: _46  and  _48
REMARK   18  A    between atoms: _48  and  _49
REMARK   19  A    between atoms: _48  and  _51
REMARK   20  A    between atoms: _51  and  _52
REMARK   21  A    between atoms: _52  and  _53
REMARK   22  A    between atoms: _53  and  _54
REMARK   23  A    between atoms: _63  and  _65
REMARK   24  A    between atoms: _65  and  _66
REMARK   25  A    between atoms: _65  and  _68
REMARK   26  A    between atoms: _71  and  _73
REMARK   27  A    between atoms: _73  and  _74
REMARK   28  A    between atoms: _73  and  _76
REMARK   29  A    between atoms: _76  and  _77
REMARK   30  A    between atoms: _82  and  _83
REMARK   31  A    between atoms: _85  and  _87
REMARK   32  A    between atoms: _87  and  _88
REMARK   33  A    between atoms: _87  and  _90
REMARK   34  A    between atoms: _90  and  _91
REMARK   35  A    between atoms: _91  and  _92
REMARK   36  A    between atoms: _95  and  _97
REMARK   37  A    between atoms: _97  and  _98
REMARK   38  A    between atoms: _97  and  _100
REMARK   39  A    between atoms: _100  and  _101
REMARK   40  A    between atoms: _111  and  _113
REMARK   41  A    between atoms: _113  and  _114
REMARK   42  A    between atoms: _113  and  _116
REMARK   43  A    between atoms: _118  and  _120
REMARK   44  A    between atoms: _120  and  _121
REMARK   45  A    between atoms: _120  and  _123
REMARK   46  A    between atoms: _123  and  _124
REMARK   47  A    between atoms: _134  and  _136
REMARK   48  A    between atoms: _136  and  _137
REMARK   49  A    between atoms: _136  and  _139
REMARK   50  A    between atoms: _139  and  _140
REMARK   51  A    between atoms: _143  and  _145
REMARK   52  A    between atoms: _145  and  _146
REMARK   53  A    between atoms: _145  and  _148
REMARK   54  A    between atoms: _148  and  _149
REMARK   55  A    between atoms: _152  and  _154
REMARK   56  A    between atoms: _154  and  _155
REMARK   57  A    between atoms: _154  and  _157
REMARK   58  A    between atoms: _157  and  _158
REMARK   59  A    between atoms: _158  and  _159
REMARK   60  A    between atoms: _159  and  _160
REMARK   61  A    between atoms: _160  and  _161
REMARK   62  A    between atoms: _165  and  _167
REMARK   63  A    between atoms: _167  and  _168
REMARK   64  A    between atoms: _170  and  _172
REMARK   65  A    between atoms: _172  and  _173
REMARK   66  A    between atoms: _176  and  _178
REMARK   67  A    between atoms: _178  and  _179
REMARK   68  A    between atoms: _178  and  _181
REMARK   69  A    between atoms: _181  and  _182
REMARK   70  A    between atoms: _187  and  _188
REMARK   71  A    between atoms: _190  and  _192
REMARK   72  A    between atoms: _192  and  _193
REMARK   73  A    between atoms: _192  and  _195
REMARK   74  A    between atoms: _195  and  _196
REMARK   75  A    between atoms: _199  and  _201
REMARK   76  A    between atoms: _201  and  _202
REMARK   77  A    between atoms: _201  and  _204
REMARK   78  A    between atoms: _208  and  _209
REMARK   79  A    between atoms: _214  and  _216
REMARK   80  A    between atoms: _216  and  _217
REMARK   81  A    between atoms: _216  and  _219
REMARK   82  A    between atoms: _219  and  _220
REMARK   83  A    between atoms: _222  and  _224
REMARK   84  A    between atoms: _224  and  _225
REMARK   85  A    between atoms: _224  and  _227
REMARK   86  A    between atoms: _227  and  _228
REMARK   87  A    between atoms: _231  and  _233
REMARK   88  A    between atoms: _233  and  _234
REMARK   89  A    between atoms: _233  and  _236
REMARK   90  A    between atoms: _236  and  _237
REMARK   91  A    between atoms: _247  and  _249
REMARK   92  A    between atoms: _249  and  _250
REMARK   93  A    between atoms: _249  and  _252
REMARK   94  A    between atoms: _252  and  _253
REMARK   95  A    between atoms: _256  and  _258
REMARK   96  A    between atoms: _258  and  _259
REMARK   97  A    between atoms: _261  and  _263
REMARK   98  A    between atoms: _263  and  _264
REMARK   99  A    between atoms: _263  and  _266
REMARK  100  A    between atoms: _266  and  _267
REMARK  101  A    between atoms: _267  and  _268
REMARK  102  A    between atoms: _268  and  _269
REMARK  103  A    between atoms: _269  and  _270
REMARK  104  A    between atoms: _274  and  _276
REMARK  105  A    between atoms: _276  and  _277
REMARK  106  A    between atoms: _279  and  _281
REMARK  107  A    between atoms: _281  and  _282
REMARK  108  A    between atoms: _281  and  _284
REMARK  109  A    between atoms: _284  and  _285
REMARK                            x       y       z     vdW  Elec       q    Type
REMARK                         _______ _______ _______ _____ _____    ______ ____
ROOT
ATOM      1  O   HOH     1      16.771  18.436 -18.789  0.00  0.00    +0.000 OA
ENDROOT
TORSDOF 0
REMARK  Name = ../refined-set-2016/3zi8/3zi8_pocket.pdb
REMARK  109 active torsions:
REMARK  status: ('A' for Active; 'I' for Inactive)
REMARK    1  A    between atoms: _1  and  _3
REMARK    2  A    between atoms: _3  and  _4
REMARK    3  A    between atoms: _3  and  _6
REMARK    4  A    between atoms: _6  and  _7
REMARK    5  A    between atoms: _10  and  _12
REMARK    6  A    between atoms: _12  and  _13
REMARK    7  A    between atoms: _12  and  _15
REMARK    8  A    between atoms: _15  and  _16
REMARK    9  A    between atoms: _26  and  _28
REMARK   10  A    between atoms: _28  and  _29
REMARK   11  A    between atoms: _28  and  _31
REMARK   12  A    between atoms: _31  and  _32
REMARK   13  A    between atoms: _37  and  _39
REMARK   14  A    between atoms: _39  and  _40
REMARK   15  A    between atoms: _39  and  _42
REMARK   16  A    between atoms: _42  and  _43
REMARK   17  A    between atoms: _46  and  _48
REMARK   18  A    between atoms: _48  and  _49
REMARK   19  A    between atoms: _48  and  _51
REMARK   20  A    between atoms: _51  and  _52
REMARK   21  A    between atoms: _52  and  _53
REMARK   22  A    between atoms: _53  and  _54
REMARK   23  A    between atoms: _63  and  _65
REMARK   24  A    between atoms: _65  and  _66
REMARK   25  A    between atoms: _65  and  _68
REMARK   26  A    between atoms: _71  and  _73
REMARK   27  A    between atoms: _73  and  _74
REMARK   28  A    between atoms: _73  and  _76
REMARK   29  A    between atoms: _76  and  _77
REMARK   30  A    between atoms: _82  and  _83
REMARK   31  A    between atoms: _85  and  _87
REMARK   32  A    between atoms: _87  and  _88
REMARK   33  A    between atoms: _87  and  _90
REMARK   34  A    between atoms: _90  and  _91
REMARK   35  A    between atoms: _91  and  _92
REMARK   36  A    between atoms: _95  and  _97
REMARK   37  A    between atoms: _97  and  _98
REMARK   38  A    between atoms: _97  and  _100
REMARK   39  A    between atoms: _100  and  _101
REMARK   40  A    between atoms: _111  and  _113
REMARK   41  A    between atoms: _113  and  _114
REMARK   42  A    between atoms: _113  and  _116
REMARK   43  A    between atoms: _118  and  _120
REMARK   44  A    between atoms: _120  and  _121
REMARK   45  A    between atoms: _120  and  _123
REMARK   46  A    between atoms: _123  and  _124
REMARK   47  A    between atoms: _134  and  _136
REMARK   48  A    between atoms: _136  and  _137
REMARK   49  A    between atoms: _136  and  _139
REMARK   50  A    between atoms: _139  and  _140
REMARK   51  A    between atoms: _143  and  _145
REMARK   52  A    between atoms: _145  and  _146
REMARK   53  A    between atoms: _145  and  _148
REMARK   54  A    between atoms: _148  and  _149
REMARK   55  A    between atoms: _152  and  _154
REMARK   56  A    between atoms: _154  and  _155
REMARK   57  A    between atoms: _154  and  _157
REMARK   58  A    between atoms: _157  and  _158
REMARK   59  A    between atoms: _158  and  _159
REMARK   60  A    between atoms: _159  and  _160
REMARK   61  A    between atoms: _160  and  _161
REMARK   62  A    between atoms: _165  and  _167
REMARK   63  A    between atoms: _167  and  _168
REMARK   64  A    between atoms: _170  and  _172
REMARK   65  A    between atoms: _172  and  _173
REMARK   66  A    between atoms: _176  and  _178
REMARK   67  A    between atoms: _178  and  _179
REMARK   68  A    between atoms: _178  and  _181
REMARK   69  A    between atoms: _181  and  _182
REMARK   70  A    between atoms: _187  and  _188
REMARK   71  A    between atoms: _190  and  _192
REMARK   72  A    between atoms: _192  and  _193
REMARK   73  A    between atoms: _192  and  _195
REMARK   74  A    between atoms: _195  and  _196
REMARK   75  A    between atoms: _199  and  _201
REMARK   76  A    between atoms: _201  and  _202
REMARK   77  A    between atoms: _201  and  _204
REMARK   78  A    between atoms: _208  and  _209
REMARK   79  A    between atoms: _214  and  _216
REMARK   80  A    between atoms: _216  and  _217
REMARK   81  A    between atoms: _216  and  _219
REMARK   82  A    between atoms: _219  and  _220
REMARK   83  A    between atoms: _222  and  _224
REMARK   84  A    between atoms: _224  and  _225
REMARK   85  A    between atoms: _224  and  _227
REMARK   86  A    between atoms: _227  and  _228
REMARK   87  A    between atoms: _231  and  _233
REMARK   88  A    between atoms: _233  and  _234
REMARK   89  A    between atoms: _233  and  _236
REMARK   90  A    between atoms: _236  and  _237
REMARK   91  A    between atoms: _247  and  _249
REMARK   92  A    between atoms: _249  and  _250
REMARK   93  A    between atoms: _249  and  _252
REMARK   94  A    between atoms: _252  and  _253
REMARK   95  A    between atoms: _256  and  _258
REMARK   96  A    between atoms: _258  and  _259
REMARK   97  A    between atoms: _261  and  _263
REMARK   98  A    between atoms: _263  and  _264
REMARK   99  A    between atoms: _263  and  _266
REMARK  100  A    between atoms: _266  and  _267
REMARK  101  A    between atoms: _267  and  _268
REMARK  102  A    between atoms: _268  and  _269
REMARK  103  A    between atoms: _269  and  _270
REMARK  104  A    between atoms: _274  and  _276
REMARK  105  A    between atoms: _276  and  _277
REMARK  106  A    between atoms: _279  and  _281
REMARK  107  A    between atoms: _281  and  _282
REMARK  108  A    between atoms: _281  and  _284
REMARK  109  A    between atoms: _284  and  _285
REMARK                            x       y       z     vdW  Elec       q    Type
REMARK                         _______ _______ _______ _____ _____    ______ ____
ROOT
ATOM      1  O   HOH     1      22.154   5.068 -12.215  0.00  0.00    +0.000 OA
ENDROOT
TORSDOF 0
REMARK  Name = ../refined-set-2016/3zi8/3zi8_pocket.pdb
REMARK  109 active torsions:
REMARK  status: ('A' for Active; 'I' for Inactive)
REMARK    1  A    between atoms: _1  and  _3
REMARK    2  A    between atoms: _3  and  _4
REMARK    3  A    between atoms: _3  and  _6
REMARK    4  A    between atoms: _6  and  _7
REMARK    5  A    between atoms: _10  and  _12
REMARK    6  A    between atoms: _12  and  _13
REMARK    7  A    between atoms: _12  and  _15
REMARK    8  A    between atoms: _15  and  _16
REMARK    9  A    between atoms: _26  and  _28
REMARK   10  A    between atoms: _28  and  _29
REMARK   11  A    between atoms: _28  and  _31
REMARK   12  A    between atoms: _31  and  _32
REMARK   13  A    between atoms: _37  and  _39
REMARK   14  A    between atoms: _39  and  _40
REMARK   15  A    between atoms: _39  and  _42
REMARK   16  A    between atoms: _42  and  _43
REMARK   17  A    between atoms: _46  and  _48
REMARK   18  A    between atoms: _48  and  _49
REMARK   19  A    between atoms: _48  and  _51
REMARK   20  A    between atoms: _51  and  _52
REMARK   21  A    between atoms: _52  and  _53
REMARK   22  A    between atoms: _53  and  _54
REMARK   23  A    between atoms: _63  and  _65
REMARK   24  A    between atoms: _65  and  _66
REMARK   25  A    between atoms: _65  and  _68
REMARK   26  A    between atoms: _71  and  _73
REMARK   27  A    between atoms: _73  and  _74
REMARK   28  A    between atoms: _73  and  _76
REMARK   29  A    between atoms: _76  and  _77
REMARK   30  A    between atoms: _82  and  _83
REMARK   31  A    between atoms: _85  and  _87
REMARK   32  A    between atoms: _87  and  _88
REMARK   33  A    between atoms: _87  and  _90
REMARK   34  A    between atoms: _90  and  _91
REMARK   35  A    between atoms: _91  and  _92
REMARK   36  A    between atoms: _95  and  _97
REMARK   37  A    between atoms: _97  and  _98
REMARK   38  A    between atoms: _97  and  _100
REMARK   39  A    between atoms: _100  and  _101
REMARK   40  A    between atoms: _111  and  _113
REMARK   41  A    between atoms: _113  and  _114
REMARK   42  A    between atoms: _113  and  _116
REMARK   43  A    between atoms: _118  and  _120
REMARK   44  A    between atoms: _120  and  _121
REMARK   45  A    between atoms: _120  and  _123
REMARK   46  A    between atoms: _123  and  _124
REMARK   47  A    between atoms: _134  and  _136
REMARK   48  A    between atoms: _136  and  _137
REMARK   49  A    between atoms: _136  and  _139
REMARK   50  A    between atoms: _139  and  _140
REMARK   51  A    between atoms: _143  and  _145
REMARK   52  A    between atoms: _145  and  _146
REMARK   53  A    between atoms: _145  and  _148
REMARK   54  A    between atoms: _148  and  _149
REMARK   55  A    between atoms: _152  and  _154
REMARK   56  A    between atoms: _154  and  _155
REMARK   57  A    between atoms: _154  and  _157
REMARK   58  A    between atoms: _157  and  _158
REMARK   59  A    between atoms: _158  and  _159
REMARK   60  A    between atoms: _159  and  _160
REMARK   61  A    between atoms: _160  and  _161
REMARK   62  A    between atoms: _165  and  _167
REMARK   63  A    between atoms: _167  and  _168
REMARK   64  A    between atoms: _170  and  _172
REMARK   65  A    between atoms: _172  and  _173
REMARK   66  A    between atoms: _176  and  _178
REMARK   67  A    between atoms: _178  and  _179
REMARK   68  A    between atoms: _178  and  _181
REMARK   69  A    between atoms: _181  and  _182
REMARK   70  A    between atoms: _187  and  _188
REMARK   71  A    between atoms: _190  and  _192
REMARK   72  A    between atoms: _192  and  _193
REMARK   73  A    between atoms: _192  and  _195
REMARK   74  A    between atoms: _195  and  _196
REMARK   75  A    between atoms: _199  and  _201
REMARK   76  A    between atoms: _201  and  _202
REMARK   77  A    between atoms: _201  and  _204
REMARK   78  A    between atoms: _208  and  _209
REMARK   79  A    between atoms: _214  and  _216
REMARK   80  A    between atoms: _216  and  _217
REMARK   81  A    between atoms: _216  and  _219
REMARK   82  A    between atoms: _219  and  _220
REMARK   83  A    between atoms: _222  and  _224
REMARK   84  A    between atoms: _224  and  _225
REMARK   85  A    between atoms: _224  and  _227
REMARK   86  A    between atoms: _227  and  _228
REMARK   87  A    between atoms: _231  and  _233
REMARK   88  A    between atoms: _233  and  _234
REMARK   89  A    between atoms: _233  and  _236
REMARK   90  A    between atoms: _236  and  _237
REMARK   91  A    between atoms: _247  and  _249
REMARK   92  A    between atoms: _249  and  _250
REMARK   93  A    between atoms: _249  and  _252
REMARK   94  A    between atoms: _252  and  _253
REMARK   95  A    between atoms: _256  and  _258
REMARK   96  A    between atoms: _258  and  _259
REMARK   97  A    between atoms: _261  and  _263
REMARK   98  A    between atoms: _263  and  _264
REMARK   99  A    between atoms: _263  and  _266
REMARK  100  A    between atoms: _266  and  _267
REMARK  101  A    between atoms: _267  and  _268
REMARK  102  A    between atoms: _268  and  _269
REMARK  103  A    between atoms: _269  and  _270
REMARK  104  A    between atoms: _274  and  _276
REMARK  105  A    between atoms: _276  and  _277
REMARK  106  A    between atoms: _279  and  _281
REMARK  107  A    between atoms: _281  and  _282
REMARK  108  A    between atoms: _281  and  _284
REMARK  109  A    between atoms: _284  and  _285
REMARK                            x       y       z     vdW  Elec       q    Type
REMARK                         _______ _______ _______ _____ _____    ______ ____
ROOT
ATOM      1  O   HOH     1      24.623  11.218 -23.249  0.00  0.00    +0.000 OA
ENDROOT
TORSDOF 0
REMARK  Name = ../refined-set-2016/3zi8/3zi8_pocket.pdb
REMARK  109 active torsions:
REMARK  status: ('A' for Active; 'I' for Inactive)
REMARK    1  A    between atoms: _1  and  _3
REMARK    2  A    between atoms: _3  and  _4
REMARK    3  A    between atoms: _3  and  _6
REMARK    4  A    between atoms: _6  and  _7
REMARK    5  A    between atoms: _10  and  _12
REMARK    6  A    between atoms: _12  and  _13
REMARK    7  A    between atoms: _12  and  _15
REMARK    8  A    between atoms: _15  and  _16
REMARK    9  A    between atoms: _26  and  _28
REMARK   10  A    between atoms: _28  and  _29
REMARK   11  A    between atoms: _28  and  _31
REMARK   12  A    between atoms: _31  and  _32
REMARK   13  A    between atoms: _37  and  _39
REMARK   14  A    between atoms: _39  and  _40
REMARK   15  A    between atoms: _39  and  _42
REMARK   16  A    between atoms: _42  and  _43
REMARK   17  A    between atoms: _46  and  _48
REMARK   18  A    between atoms: _48  and  _49
REMARK   19  A    between atoms: _48  and  _51
REMARK   20  A    between atoms: _51  and  _52
REMARK   21  A    between atoms: _52  and  _53
REMARK   22  A    between atoms: _53  and  _54
REMARK   23  A    between atoms: _63  and  _65
REMARK   24  A    between atoms: _65  and  _66
REMARK   25  A    between atoms: _65  and  _68
REMARK   26  A    between atoms: _71  and  _73
REMARK   27  A    between atoms: _73  and  _74
REMARK   28  A    between atoms: _73  and  _76
REMARK   29  A    between atoms: _76  and  _77
REMARK   30  A    between atoms: _82  and  _83
REMARK   31  A    between atoms: _85  and  _87
REMARK   32  A    between atoms: _87  and  _88
REMARK   33  A    between atoms: _87  and  _90
REMARK   34  A    between atoms: _90  and  _91
REMARK   35  A    between atoms: _91  and  _92
REMARK   36  A    between atoms: _95  and  _97
REMARK   37  A    between atoms: _97  and  _98
REMARK   38  A    between atoms: _97  and  _100
REMARK   39  A    between atoms: _100  and  _101
REMARK   40  A    between atoms: _111  and  _113
REMARK   41  A    between atoms: _113  and  _114
REMARK   42  A    between atoms: _113  and  _116
REMARK   43  A    between atoms: _118  and  _120
REMARK   44  A    between atoms: _120  and  _121
REMARK   45  A    between atoms: _120  and  _123
REMARK   46  A    between atoms: _123  and  _124
REMARK   47  A    between atoms: _134  and  _136
REMARK   48  A    between atoms: _136  and  _137
REMARK   49  A    between atoms: _136  and  _139
REMARK   50  A    between atoms: _139  and  _140
REMARK   51  A    between atoms: _143  and  _145
REMARK   52  A    between atoms: _145  and  _146
REMARK   53  A    between atoms: _145  and  _148
REMARK   54  A    between atoms: _148  and  _149
REMARK   55  A    between atoms: _152  and  _154
REMARK   56  A    between atoms: _154  and  _155
REMARK   57  A    between atoms: _154  and  _157
REMARK   58  A    between atoms: _157  and  _158
REMARK   59  A    between atoms: _158  and  _159
REMARK   60  A    between atoms: _159  and  _160
REMARK   61  A    between atoms: _160  and  _161
REMARK   62  A    between atoms: _165  and  _167
REMARK   63  A    between atoms: _167  and  _168
REMARK   64  A    between atoms: _170  and  _172
REMARK   65  A    between atoms: _172  and  _173
REMARK   66  A    between atoms: _176  and  _178
REMARK   67  A    between atoms: _178  and  _179
REMARK   68  A    between atoms: _178  and  _181
REMARK   69  A    between atoms: _181  and  _182
REMARK   70  A    between atoms: _187  and  _188
REMARK   71  A    between atoms: _190  and  _192
REMARK   72  A    between atoms: _192  and  _193
REMARK   73  A    between atoms: _192  and  _195
REMARK   74  A    between atoms: _195  and  _196
REMARK   75  A    between atoms: _199  and  _201
REMARK   76  A    between atoms: _201  and  _202
REMARK   77  A    between atoms: _201  and  _204
REMARK   78  A    between atoms: _208  and  _209
REMARK   79  A    between atoms: _214  and  _216
REMARK   80  A    between atoms: _216  and  _217
REMARK   81  A    between atoms: _216  and  _219
REMARK   82  A    between atoms: _219  and  _220
REMARK   83  A    between atoms: _222  and  _224
REMARK   84  A    between atoms: _224  and  _225
REMARK   85  A    between atoms: _224  and  _227
REMARK   86  A    between atoms: _227  and  _228
REMARK   87  A    between atoms: _231  and  _233
REMARK   88  A    between atoms: _233  and  _234
REMARK   89  A    between atoms: _233  and  _236
REMARK   90  A    between atoms: _236  and  _237
REMARK   91  A    between atoms: _247  and  _249
REMARK   92  A    between atoms: _249  and  _250
REMARK   93  A    between atoms: _249  and  _252
REMARK   94  A    between atoms: _252  and  _253
REMARK   95  A    between atoms: _256  and  _258
REMARK   96  A    between atoms: _258  and  _259
REMARK   97  A    between atoms: _261  and  _263
REMARK   98  A    between atoms: _263  and  _264
REMARK   99  A    between atoms: _263  and  _266
REMARK  100  A    between atoms: _266  and  _267
REMARK  101  A    between atoms: _267  and  _268
REMARK  102  A    between atoms: _268  and  _269
REMARK  103  A    between atoms: _269  and  _270
REMARK  104  A    between atoms: _274  and  _276
REMARK  105  A    between atoms: _276  and  _277
REMARK  106  A    between atoms: _279  and  _281
REMARK  107  A    between atoms: _281  and  _282
REMARK  108  A    between atoms: _281  and  _284
REMARK  109  A    between atoms: _284  and  _285
REMARK                            x       y       z     vdW  Elec       q    Type
REMARK                         _______ _______ _______ _____ _____    ______ ____
ROOT
ATOM      1  O   HOH     1      21.806   3.736 -15.017  0.00  0.00    +0.000 OA
ENDROOT
TORSDOF 0
