REMARK  Name = ../refined-set-2016/1fh7/1fh7_pocket.pdb
REMARK  130 active torsions:
REMARK  status: ('A' for Active; 'I' for Inactive)
REMARK    1  A    between atoms: _1  and  _3
REMARK    2  A    between atoms: _3  and  _4
REMARK    3  A    between atoms: _7  and  _9
REMARK    4  A    between atoms: _9  and  _10
REMARK    5  A    between atoms: _9  and  _12
REMARK    6  A    between atoms: _12  and  _13
REMARK    7  A    between atoms: _16  and  _18
REMARK    8  A    between atoms: _18  and  _19
REMARK    9  A    between atoms: _22  and  _24
REMARK   10  A    between atoms: _24  and  _25
REMARK   11  A    between atoms: _24  and  _27
REMARK   12  A    between atoms: _27  and  _28
REMARK   13  A    between atoms: _28  and  _29
REMARK   14  A    between atoms: _32  and  _34
REMARK   15  A    between atoms: _34  and  _35
REMARK   16  A    between atoms: _34  and  _37
REMARK   17  A    between atoms: _37  and  _38
REMARK   18  A    between atoms: _43  and  _45
REMARK   19  A    between atoms: _45  and  _46
REMARK   20  A    between atoms: _45  and  _48
REMARK   21  A    between atoms: _48  and  _49
REMARK   22  A    between atoms: _49  and  _50
REMARK   23  A    between atoms: _50  and  _51
REMARK   24  A    between atoms: _51  and  _52
REMARK   25  A    between atoms: _56  and  _58
REMARK   26  A    between atoms: _58  and  _59
REMARK   27  A    between atoms: _58  and  _61
REMARK   28  A    between atoms: _61  and  _62
REMARK   29  A    between atoms: _65  and  _67
REMARK   30  A    between atoms: _67  and  _68
REMARK   31  A    between atoms: _67  and  _70
REMARK   32  A    between atoms: _70  and  _71
REMARK   33  A    between atoms: _76  and  _78
REMARK   34  A    between atoms: _78  and  _79
REMARK   35  A    between atoms: _78  and  _81
REMARK   36  A    between atoms: _81  and  _82
REMARK   37  A    between atoms: _85  and  _87
REMARK   38  A    between atoms: _87  and  _88
REMARK   39  A    between atoms: _87  and  _90
REMARK   40  A    between atoms: _90  and  _91
REMARK   41  A    between atoms: _101  and  _103
REMARK   42  A    between atoms: _103  and  _104
REMARK   43  A    between atoms: _103  and  _106
REMARK   44  A    between atoms: _106  and  _107
REMARK   45  A    between atoms: _109  and  _111
REMARK   46  A    between atoms: _111  and  _112
REMARK   47  A    between atoms: _111  and  _114
REMARK   48  A    between atoms: _114  and  _115
REMARK   49  A    between atoms: _115  and  _116
REMARK   50  A    between atoms: _121  and  _123
REMARK   51  A    between atoms: _123  and  _124
REMARK   52  A    between atoms: _123  and  _126
REMARK   53  A    between atoms: _126  and  _127
REMARK   54  A    between atoms: _130  and  _132
REMARK   55  A    between atoms: _132  and  _133
REMARK   56  A    between atoms: _132  and  _135
REMARK   57  A    between atoms: _135  and  _136
REMARK   58  A    between atoms: _141  and  _143
REMARK   59  A    between atoms: _143  and  _144
REMARK   60  A    between atoms: _143  and  _146
REMARK   61  A    between atoms: _146  and  _147
REMARK   62  A    between atoms: _147  and  _148
REMARK   63  A    between atoms: _151  and  _153
REMARK   64  A    between atoms: _153  and  _154
REMARK   65  A    between atoms: _153  and  _156
REMARK   66  A    between atoms: _156  and  _157
REMARK   67  A    between atoms: _162  and  _164
REMARK   68  A    between atoms: _164  and  _165
REMARK   69  A    between atoms: _164  and  _167
REMARK   70  A    between atoms: _167  and  _168
REMARK   71  A    between atoms: _171  and  _173
REMARK   72  A    between atoms: _173  and  _174
REMARK   73  A    between atoms: _173  and  _176
REMARK   74  A    between atoms: _176  and  _177
REMARK   75  A    between atoms: _182  and  _183
REMARK   76  A    between atoms: _185  and  _187
REMARK   77  A    between atoms: _187  and  _188
REMARK   78  A    between atoms: _187  and  _190
REMARK   79  A    between atoms: _190  and  _191
REMARK   80  A    between atoms: _191  and  _192
REMARK   81  A    between atoms: _197  and  _199
REMARK   82  A    between atoms: _199  and  _200
REMARK   83  A    between atoms: _199  and  _202
REMARK   84  A    between atoms: _202  and  _203
REMARK   85  A    between atoms: _208  and  _210
REMARK   86  A    between atoms: _210  and  _211
REMARK   87  A    between atoms: _210  and  _213
REMARK   88  A    between atoms: _213  and  _214
REMARK   89  A    between atoms: _217  and  _219
REMARK   90  A    between atoms: _219  and  _220
REMARK   91  A    between atoms: _219  and  _222
REMARK   92  A    between atoms: _222  and  _223
REMARK   93  A    between atoms: _223  and  _224
REMARK   94  A    between atoms: _227  and  _229
REMARK   95  A    between atoms: _229  and  _230
REMARK   96  A    between atoms: _229  and  _232
REMARK   97  A    between atoms: _232  and  _233
REMARK   98  A    between atoms: _236  and  _238
REMARK   99  A    between atoms: _238  and  _239
REMARK  100  A    between atoms: _238  and  _241
REMARK  101  A    between atoms: _241  and  _242
REMARK  102  A    between atoms: _252  and  _254
REMARK  103  A    between atoms: _254  and  _255
REMARK  104  A    between atoms: _257  and  _259
REMARK  105  A    between atoms: _259  and  _260
REMARK  106  A    between atoms: _259  and  _262
REMARK  107  A    between atoms: _262  and  _263
REMARK  108  A    between atoms: _268  and  _269
REMARK  109  A    between atoms: _271  and  _273
REMARK  110  A    between atoms: _273  and  _274
REMARK  111  A    between atoms: _273  and  _276
REMARK  112  A    between atoms: _276  and  _277
REMARK  113  A    between atoms: _279  and  _281
REMARK  114  A    between atoms: _281  and  _282
REMARK  115  A    between atoms: _281  and  _284
REMARK  116  A    between atoms: _284  and  _285
REMARK  117  A    between atoms: _295  and  _297
REMARK  118  A    between atoms: _297  and  _298
REMARK  119  A    between atoms: _297  and  _300
REMARK  120  A    between atoms: _303  and  _305
REMARK  121  A    between atoms: _305  and  _306
REMARK  122  A    between atoms: _305  and  _308
REMARK  123  A    between atoms: _308  and  _309
REMARK  124  A    between atoms: _312  and  _314
REMARK  125  A    between atoms: _314  and  _315
REMARK  126  A    between atoms: _314  and  _317
REMARK  127  A    between atoms: _320  and  _322
REMARK  128  A    between atoms: _322  and  _323
REMARK  129  A    between atoms: _322  and  _325
REMARK  130  A    between atoms: _325  and  _326
REMARK                            x       y       z     vdW  Elec       q    Type
REMARK                         _______ _______ _______ _____ _____    ______ ____
ROOT
ATOM      1  CA  ALA A   1      23.830  62.183  44.454  0.00  0.00    +0.133 C 
ATOM      2  CB  ALA A   1      23.070  62.475  43.165  0.00  0.00    +0.027 C 
ENDROOT
BRANCH   1   3
ATOM      3  N   ALA A   1      24.998  61.353  44.178  0.00  0.00    -0.239 NA
ATOM      4  H   ALA A   1      24.967  60.699  43.370  0.00  0.00    +0.142 HD
ENDBRANCH   1   3
BRANCH   1   5
ATOM      5  C   ALA A   1      22.961  61.385  45.424  0.00  0.00    +0.224 C 
ATOM      6  O   ALA A   1      22.498  60.285  45.103  0.00  0.00    -0.287 OA
ENDBRANCH   1   5
TORSDOF 2
REMARK  Name = ../refined-set-2016/1fh7/1fh7_pocket.pdb
REMARK  130 active torsions:
REMARK  status: ('A' for Active; 'I' for Inactive)
REMARK    1  A    between atoms: _1  and  _3
REMARK    2  A    between atoms: _3  and  _4
REMARK    3  A    between atoms: _7  and  _9
REMARK    4  A    between atoms: _9  and  _10
REMARK    5  A    between atoms: _9  and  _12
REMARK    6  A    between atoms: _12  and  _13
REMARK    7  A    between atoms: _16  and  _18
REMARK    8  A    between atoms: _18  and  _19
REMARK    9  A    between atoms: _22  and  _24
REMARK   10  A    between atoms: _24  and  _25
REMARK   11  A    between atoms: _24  and  _27
REMARK   12  A    between atoms: _27  and  _28
REMARK   13  A    between atoms: _28  and  _29
REMARK   14  A    between atoms: _32  and  _34
REMARK   15  A    between atoms: _34  and  _35
REMARK   16  A    between atoms: _34  and  _37
REMARK   17  A    between atoms: _37  and  _38
REMARK   18  A    between atoms: _43  and  _45
REMARK   19  A    between atoms: _45  and  _46
REMARK   20  A    between atoms: _45  and  _48
REMARK   21  A    between atoms: _48  and  _49
REMARK   22  A    between atoms: _49  and  _50
REMARK   23  A    between atoms: _50  and  _51
REMARK   24  A    between atoms: _51  and  _52
REMARK   25  A    between atoms: _56  and  _58
REMARK   26  A    between atoms: _58  and  _59
REMARK   27  A    between atoms: _58  and  _61
REMARK   28  A    between atoms: _61  and  _62
REMARK   29  A    between atoms: _65  and  _67
REMARK   30  A    between atoms: _67  and  _68
REMARK   31  A    between atoms: _67  and  _70
REMARK   32  A    between atoms: _70  and  _71
REMARK   33  A    between atoms: _76  and  _78
REMARK   34  A    between atoms: _78  and  _79
REMARK   35  A    between atoms: _78  and  _81
REMARK   36  A    between atoms: _81  and  _82
REMARK   37  A    between atoms: _85  and  _87
REMARK   38  A    between atoms: _87  and  _88
REMARK   39  A    between atoms: _87  and  _90
REMARK   40  A    between atoms: _90  and  _91
REMARK   41  A    between atoms: _101  and  _103
REMARK   42  A    between atoms: _103  and  _104
REMARK   43  A    between atoms: _103  and  _106
REMARK   44  A    between atoms: _106  and  _107
REMARK   45  A    between atoms: _109  and  _111
REMARK   46  A    between atoms: _111  and  _112
REMARK   47  A    between atoms: _111  and  _114
REMARK   48  A    between atoms: _114  and  _115
REMARK   49  A    between atoms: _115  and  _116
REMARK   50  A    between atoms: _121  and  _123
REMARK   51  A    between atoms: _123  and  _124
REMARK   52  A    between atoms: _123  and  _126
REMARK   53  A    between atoms: _126  and  _127
REMARK   54  A    between atoms: _130  and  _132
REMARK   55  A    between atoms: _132  and  _133
REMARK   56  A    between atoms: _132  and  _135
REMARK   57  A    between atoms: _135  and  _136
REMARK   58  A    between atoms: _141  and  _143
REMARK   59  A    between atoms: _143  and  _144
REMARK   60  A    between atoms: _143  and  _146
REMARK   61  A    between atoms: _146  and  _147
REMARK   62  A    between atoms: _147  and  _148
REMARK   63  A    between atoms: _151  and  _153
REMARK   64  A    between atoms: _153  and  _154
REMARK   65  A    between atoms: _153  and  _156
REMARK   66  A    between atoms: _156  and  _157
REMARK   67  A    between atoms: _162  and  _164
REMARK   68  A    between atoms: _164  and  _165
REMARK   69  A    between atoms: _164  and  _167
REMARK   70  A    between atoms: _167  and  _168
REMARK   71  A    between atoms: _171  and  _173
REMARK   72  A    between atoms: _173  and  _174
REMARK   73  A    between atoms: _173  and  _176
REMARK   74  A    between atoms: _176  and  _177
REMARK   75  A    between atoms: _182  and  _183
REMARK   76  A    between atoms: _185  and  _187
REMARK   77  A    between atoms: _187  and  _188
REMARK   78  A    between atoms: _187  and  _190
REMARK   79  A    between atoms: _190  and  _191
REMARK   80  A    between atoms: _191  and  _192
REMARK   81  A    between atoms: _197  and  _199
REMARK   82  A    between atoms: _199  and  _200
REMARK   83  A    between atoms: _199  and  _202
REMARK   84  A    between atoms: _202  and  _203
REMARK   85  A    between atoms: _208  and  _210
REMARK   86  A    between atoms: _210  and  _211
REMARK   87  A    between atoms: _210  and  _213
REMARK   88  A    between atoms: _213  and  _214
REMARK   89  A    between atoms: _217  and  _219
REMARK   90  A    between atoms: _219  and  _220
REMARK   91  A    between atoms: _219  and  _222
REMARK   92  A    between atoms: _222  and  _223
REMARK   93  A    between atoms: _223  and  _224
REMARK   94  A    between atoms: _227  and  _229
REMARK   95  A    between atoms: _229  and  _230
REMARK   96  A    between atoms: _229  and  _232
REMARK   97  A    between atoms: _232  and  _233
REMARK   98  A    between atoms: _236  and  _238
REMARK   99  A    between atoms: _238  and  _239
REMARK  100  A    between atoms: _238  and  _241
REMARK  101  A    between atoms: _241  and  _242
REMARK  102  A    between atoms: _252  and  _254
REMARK  103  A    between atoms: _254  and  _255
REMARK  104  A    between atoms: _257  and  _259
REMARK  105  A    between atoms: _259  and  _260
REMARK  106  A    between atoms: _259  and  _262
REMARK  107  A    between atoms: _262  and  _263
REMARK  108  A    between atoms: _268  and  _269
REMARK  109  A    between atoms: _271  and  _273
REMARK  110  A    between atoms: _273  and  _274
REMARK  111  A    between atoms: _273  and  _276
REMARK  112  A    between atoms: _276  and  _277
REMARK  113  A    between atoms: _279  and  _281
REMARK  114  A    between atoms: _281  and  _282
REMARK  115  A    between atoms: _281  and  _284
REMARK  116  A    between atoms: _284  and  _285
REMARK  117  A    between atoms: _295  and  _297
REMARK  118  A    between atoms: _297  and  _298
REMARK  119  A    between atoms: _297  and  _300
REMARK  120  A    between atoms: _303  and  _305
REMARK  121  A    between atoms: _305  and  _306
REMARK  122  A    between atoms: _305  and  _308
REMARK  123  A    between atoms: _308  and  _309
REMARK  124  A    between atoms: _312  and  _314
REMARK  125  A    between atoms: _314  and  _315
REMARK  126  A    between atoms: _314  and  _317
REMARK  127  A    between atoms: _320  and  _322
REMARK  128  A    between atoms: _322  and  _323
REMARK  129  A    between atoms: _322  and  _325
REMARK  130  A    between atoms: _325  and  _326
REMARK                            x       y       z     vdW  Elec       q    Type
REMARK                         _______ _______ _______ _____ _____    ______ ____
ROOT
ATOM      1  CA  ASP A   1      18.275  60.921  48.417  0.00  0.00    +0.144 C 
ENDROOT
BRANCH   1   2
ATOM      2  N   ASP A   1      19.688  60.720  48.124  0.00  0.00    -0.239 NA
ATOM      3  H   ASP A   1      20.074  59.755  48.172  0.00  0.00    +0.142 HD
ENDBRANCH   1   2
BRANCH   1   4
ATOM      4  C   ASP A   1      18.322  60.562  49.903  0.00  0.00    +0.225 C 
ATOM      5  O   ASP A   1      18.452  59.394  50.251  0.00  0.00    -0.287 OA
ENDBRANCH   1   4
BRANCH   1   6
ATOM      6  CB  ASP A   1      17.373  59.924  47.672  0.00  0.00    +0.139 C 
BRANCH   6   7
ATOM      7  CG  ASP A   1      15.935  59.966  48.168  0.00  0.00    +0.367 C 
ATOM      8  OD2 ASP A   1      15.695  60.542  49.256  0.00  0.00    -0.246 OA
ATOM      9  OD1 ASP A   1      15.032  59.429  47.493  0.00  0.00    -0.246 OA
ENDBRANCH   6   7
ENDBRANCH   1   6
TORSDOF 4
REMARK  Name = ../refined-set-2016/1fh7/1fh7_pocket.pdb
REMARK  130 active torsions:
REMARK  status: ('A' for Active; 'I' for Inactive)
REMARK    1  A    between atoms: _1  and  _3
REMARK    2  A    between atoms: _3  and  _4
REMARK    3  A    between atoms: _7  and  _9
REMARK    4  A    between atoms: _9  and  _10
REMARK    5  A    between atoms: _9  and  _12
REMARK    6  A    between atoms: _12  and  _13
REMARK    7  A    between atoms: _16  and  _18
REMARK    8  A    between atoms: _18  and  _19
REMARK    9  A    between atoms: _22  and  _24
REMARK   10  A    between atoms: _24  and  _25
REMARK   11  A    between atoms: _24  and  _27
REMARK   12  A    between atoms: _27  and  _28
REMARK   13  A    between atoms: _28  and  _29
REMARK   14  A    between atoms: _32  and  _34
REMARK   15  A    between atoms: _34  and  _35
REMARK   16  A    between atoms: _34  and  _37
REMARK   17  A    between atoms: _37  and  _38
REMARK   18  A    between atoms: _43  and  _45
REMARK   19  A    between atoms: _45  and  _46
REMARK   20  A    between atoms: _45  and  _48
REMARK   21  A    between atoms: _48  and  _49
REMARK   22  A    between atoms: _49  and  _50
REMARK   23  A    between atoms: _50  and  _51
REMARK   24  A    between atoms: _51  and  _52
REMARK   25  A    between atoms: _56  and  _58
REMARK   26  A    between atoms: _58  and  _59
REMARK   27  A    between atoms: _58  and  _61
REMARK   28  A    between atoms: _61  and  _62
REMARK   29  A    between atoms: _65  and  _67
REMARK   30  A    between atoms: _67  and  _68
REMARK   31  A    between atoms: _67  and  _70
REMARK   32  A    between atoms: _70  and  _71
REMARK   33  A    between atoms: _76  and  _78
REMARK   34  A    between atoms: _78  and  _79
REMARK   35  A    between atoms: _78  and  _81
REMARK   36  A    between atoms: _81  and  _82
REMARK   37  A    between atoms: _85  and  _87
REMARK   38  A    between atoms: _87  and  _88
REMARK   39  A    between atoms: _87  and  _90
REMARK   40  A    between atoms: _90  and  _91
REMARK   41  A    between atoms: _101  and  _103
REMARK   42  A    between atoms: _103  and  _104
REMARK   43  A    between atoms: _103  and  _106
REMARK   44  A    between atoms: _106  and  _107
REMARK   45  A    between atoms: _109  and  _111
REMARK   46  A    between atoms: _111  and  _112
REMARK   47  A    between atoms: _111  and  _114
REMARK   48  A    between atoms: _114  and  _115
REMARK   49  A    between atoms: _115  and  _116
REMARK   50  A    between atoms: _121  and  _123
REMARK   51  A    between atoms: _123  and  _124
REMARK   52  A    between atoms: _123  and  _126
REMARK   53  A    between atoms: _126  and  _127
REMARK   54  A    between atoms: _130  and  _132
REMARK   55  A    between atoms: _132  and  _133
REMARK   56  A    between atoms: _132  and  _135
REMARK   57  A    between atoms: _135  and  _136
REMARK   58  A    between atoms: _141  and  _143
REMARK   59  A    between atoms: _143  and  _144
REMARK   60  A    between atoms: _143  and  _146
REMARK   61  A    between atoms: _146  and  _147
REMARK   62  A    between atoms: _147  and  _148
REMARK   63  A    between atoms: _151  and  _153
REMARK   64  A    between atoms: _153  and  _154
REMARK   65  A    between atoms: _153  and  _156
REMARK   66  A    between atoms: _156  and  _157
REMARK   67  A    between atoms: _162  and  _164
REMARK   68  A    between atoms: _164  and  _165
REMARK   69  A    between atoms: _164  and  _167
REMARK   70  A    between atoms: _167  and  _168
REMARK   71  A    between atoms: _171  and  _173
REMARK   72  A    between atoms: _173  and  _174
REMARK   73  A    between atoms: _173  and  _176
REMARK   74  A    between atoms: _176  and  _177
REMARK   75  A    between atoms: _182  and  _183
REMARK   76  A    between atoms: _185  and  _187
REMARK   77  A    between atoms: _187  and  _188
REMARK   78  A    between atoms: _187  and  _190
REMARK   79  A    between atoms: _190  and  _191
REMARK   80  A    between atoms: _191  and  _192
REMARK   81  A    between atoms: _197  and  _199
REMARK   82  A    between atoms: _199  and  _200
REMARK   83  A    between atoms: _199  and  _202
REMARK   84  A    between atoms: _202  and  _203
REMARK   85  A    between atoms: _208  and  _210
REMARK   86  A    between atoms: _210  and  _211
REMARK   87  A    between atoms: _210  and  _213
REMARK   88  A    between atoms: _213  and  _214
REMARK   89  A    between atoms: _217  and  _219
REMARK   90  A    between atoms: _219  and  _220
REMARK   91  A    between atoms: _219  and  _222
REMARK   92  A    between atoms: _222  and  _223
REMARK   93  A    between atoms: _223  and  _224
REMARK   94  A    between atoms: _227  and  _229
REMARK   95  A    between atoms: _229  and  _230
REMARK   96  A    between atoms: _229  and  _232
REMARK   97  A    between atoms: _232  and  _233
REMARK   98  A    between atoms: _236  and  _238
REMARK   99  A    between atoms: _238  and  _239
REMARK  100  A    between atoms: _238  and  _241
REMARK  101  A    between atoms: _241  and  _242
REMARK  102  A    between atoms: _252  and  _254
REMARK  103  A    between atoms: _254  and  _255
REMARK  104  A    between atoms: _257  and  _259
REMARK  105  A    between atoms: _259  and  _260
REMARK  106  A    between atoms: _259  and  _262
REMARK  107  A    between atoms: _262  and  _263
REMARK  108  A    between atoms: _268  and  _269
REMARK  109  A    between atoms: _271  and  _273
REMARK  110  A    between atoms: _273  and  _274
REMARK  111  A    between atoms: _273  and  _276
REMARK  112  A    between atoms: _276  and  _277
REMARK  113  A    between atoms: _279  and  _281
REMARK  114  A    between atoms: _281  and  _282
REMARK  115  A    between atoms: _281  and  _284
REMARK  116  A    between atoms: _284  and  _285
REMARK  117  A    between atoms: _295  and  _297
REMARK  118  A    between atoms: _297  and  _298
REMARK  119  A    between atoms: _297  and  _300
REMARK  120  A    between atoms: _303  and  _305
REMARK  121  A    between atoms: _305  and  _306
REMARK  122  A    between atoms: _305  and  _308
REMARK  123  A    between atoms: _308  and  _309
REMARK  124  A    between atoms: _312  and  _314
REMARK  125  A    between atoms: _314  and  _315
REMARK  126  A    between atoms: _314  and  _317
REMARK  127  A    between atoms: _320  and  _322
REMARK  128  A    between atoms: _322  and  _323
REMARK  129  A    between atoms: _322  and  _325
REMARK  130  A    between atoms: _325  and  _326
REMARK                            x       y       z     vdW  Elec       q    Type
REMARK                         _______ _______ _______ _____ _____    ______ ____
ROOT
ATOM      1  CA  GLU A   2      19.989  65.010  44.335  0.00  0.00    +0.149 C 
ENDROOT
BRANCH   1   3
ATOM      2  C   ALA A   1      21.253  66.287  45.953  0.00  0.00    +0.238 C 
ATOM      3  N   GLU A   2      20.613  65.165  45.640  0.00  0.00    -0.297 N 
ATOM      4  H   GLU A   2      20.558  64.392  46.333  0.00  0.00    +0.150 HD
ATOM      5  O   ALA A   1      21.357  67.231  45.165  0.00  0.00    -0.274 OA
BRANCH   2   6
ATOM      6  CA  ALA A   1      21.871  66.349  47.346  0.00  0.00    +0.145 C 
ATOM      7  CB  ALA A   1      21.195  67.438  48.182  0.00  0.00    +0.028 C 
BRANCH   6   8
ATOM      8  N   ALA A   1      23.293  66.633  47.190  0.00  0.00    -0.238 NA
ATOM      9  H   ALA A   1      23.641  67.608  47.293  0.00  0.00    +0.142 HD
ENDBRANCH   6   8
ENDBRANCH   2   6
ENDBRANCH   1   3
BRANCH   1  10
ATOM     10  C   GLU A   2      18.840  65.989  44.171  0.00  0.00    +0.241 C 
ATOM     11  N   ASN A   3      18.138  66.280  45.265  0.00  0.00    -0.298 N 
ATOM     12  H   ASN A   3      18.421  65.860  46.173  0.00  0.00    +0.150 HD
ATOM     13  O   GLU A   2      18.609  66.497  43.074  0.00  0.00    -0.273 OA
BRANCH  11  14
ATOM     14  CA  ASN A   3      16.982  67.173  45.225  0.00  0.00    +0.146 C 
BRANCH  14  15
ATOM     15  C   ASN A   3      16.766  68.056  46.449  0.00  0.00    +0.227 C 
ATOM     16  O   ASN A   3      16.124  69.097  46.350  0.00  0.00    -0.286 OA
ENDBRANCH  14  15
BRANCH  14  17
ATOM     17  CB  ASN A   3      15.695  66.352  45.048  0.00  0.00    +0.112 C 
BRANCH  17  18
ATOM     18  CG  ASN A   3      15.551  65.764  43.664  0.00  0.00    +0.222 C 
ATOM     19  ND2 ASN A   3      15.533  64.435  43.576  0.00  0.00    -0.329 N 
ATOM     20 HD21 ASN A   3      15.628  63.856  44.434  0.00  0.00    +0.145 HD
ATOM     21 HD22 ASN A   3      15.424  63.977  42.649  0.00  0.00    +0.145 HD
ATOM     22  OD1 ASN A   3      15.443  66.494  42.685  0.00  0.00    -0.275 OA
ENDBRANCH  17  18
ENDBRANCH  14  17
ENDBRANCH  11  14
ENDBRANCH   1  10
BRANCH   1  23
ATOM     23  CB  GLU A   2      19.479  63.570  44.147  0.00  0.00    +0.041 C 
BRANCH  23  24
ATOM     24  CG  GLU A   2      18.640  63.369  42.888  0.00  0.00    +0.116 C 
BRANCH  24  25
ATOM     25  CD  GLU A   2      18.168  61.931  42.711  0.00  0.00    +0.365 C 
ATOM     26  OE2 GLU A   2      17.876  61.278  43.728  0.00  0.00    -0.246 OA
ATOM     27  OE1 GLU A   2      18.076  61.474  41.549  0.00  0.00    -0.246 OA
ENDBRANCH  24  25
ENDBRANCH  23  24
ENDBRANCH   1  23
TORSDOF 11
REMARK  Name = ../refined-set-2016/1fh7/1fh7_pocket.pdb
REMARK  130 active torsions:
REMARK  status: ('A' for Active; 'I' for Inactive)
REMARK    1  A    between atoms: _1  and  _3
REMARK    2  A    between atoms: _3  and  _4
REMARK    3  A    between atoms: _7  and  _9
REMARK    4  A    between atoms: _9  and  _10
REMARK    5  A    between atoms: _9  and  _12
REMARK    6  A    between atoms: _12  and  _13
REMARK    7  A    between atoms: _16  and  _18
REMARK    8  A    between atoms: _18  and  _19
REMARK    9  A    between atoms: _22  and  _24
REMARK   10  A    between atoms: _24  and  _25
REMARK   11  A    between atoms: _24  and  _27
REMARK   12  A    between atoms: _27  and  _28
REMARK   13  A    between atoms: _28  and  _29
REMARK   14  A    between atoms: _32  and  _34
REMARK   15  A    between atoms: _34  and  _35
REMARK   16  A    between atoms: _34  and  _37
REMARK   17  A    between atoms: _37  and  _38
REMARK   18  A    between atoms: _43  and  _45
REMARK   19  A    between atoms: _45  and  _46
REMARK   20  A    between atoms: _45  and  _48
REMARK   21  A    between atoms: _48  and  _49
REMARK   22  A    between atoms: _49  and  _50
REMARK   23  A    between atoms: _50  and  _51
REMARK   24  A    between atoms: _51  and  _52
REMARK   25  A    between atoms: _56  and  _58
REMARK   26  A    between atoms: _58  and  _59
REMARK   27  A    between atoms: _58  and  _61
REMARK   28  A    between atoms: _61  and  _62
REMARK   29  A    between atoms: _65  and  _67
REMARK   30  A    between atoms: _67  and  _68
REMARK   31  A    between atoms: _67  and  _70
REMARK   32  A    between atoms: _70  and  _71
REMARK   33  A    between atoms: _76  and  _78
REMARK   34  A    between atoms: _78  and  _79
REMARK   35  A    between atoms: _78  and  _81
REMARK   36  A    between atoms: _81  and  _82
REMARK   37  A    between atoms: _85  and  _87
REMARK   38  A    between atoms: _87  and  _88
REMARK   39  A    between atoms: _87  and  _90
REMARK   40  A    between atoms: _90  and  _91
REMARK   41  A    between atoms: _101  and  _103
REMARK   42  A    between atoms: _103  and  _104
REMARK   43  A    between atoms: _103  and  _106
REMARK   44  A    between atoms: _106  and  _107
REMARK   45  A    between atoms: _109  and  _111
REMARK   46  A    between atoms: _111  and  _112
REMARK   47  A    between atoms: _111  and  _114
REMARK   48  A    between atoms: _114  and  _115
REMARK   49  A    between atoms: _115  and  _116
REMARK   50  A    between atoms: _121  and  _123
REMARK   51  A    between atoms: _123  and  _124
REMARK   52  A    between atoms: _123  and  _126
REMARK   53  A    between atoms: _126  and  _127
REMARK   54  A    between atoms: _130  and  _132
REMARK   55  A    between atoms: _132  and  _133
REMARK   56  A    between atoms: _132  and  _135
REMARK   57  A    between atoms: _135  and  _136
REMARK   58  A    between atoms: _141  and  _143
REMARK   59  A    between atoms: _143  and  _144
REMARK   60  A    between atoms: _143  and  _146
REMARK   61  A    between atoms: _146  and  _147
REMARK   62  A    between atoms: _147  and  _148
REMARK   63  A    between atoms: _151  and  _153
REMARK   64  A    between atoms: _153  and  _154
REMARK   65  A    between atoms: _153  and  _156
REMARK   66  A    between atoms: _156  and  _157
REMARK   67  A    between atoms: _162  and  _164
REMARK   68  A    between atoms: _164  and  _165
REMARK   69  A    between atoms: _164  and  _167
REMARK   70  A    between atoms: _167  and  _168
REMARK   71  A    between atoms: _171  and  _173
REMARK   72  A    between atoms: _173  and  _174
REMARK   73  A    between atoms: _173  and  _176
REMARK   74  A    between atoms: _176  and  _177
REMARK   75  A    between atoms: _182  and  _183
REMARK   76  A    between atoms: _185  and  _187
REMARK   77  A    between atoms: _187  and  _188
REMARK   78  A    between atoms: _187  and  _190
REMARK   79  A    between atoms: _190  and  _191
REMARK   80  A    between atoms: _191  and  _192
REMARK   81  A    between atoms: _197  and  _199
REMARK   82  A    between atoms: _199  and  _200
REMARK   83  A    between atoms: _199  and  _202
REMARK   84  A    between atoms: _202  and  _203
REMARK   85  A    between atoms: _208  and  _210
REMARK   86  A    between atoms: _210  and  _211
REMARK   87  A    between atoms: _210  and  _213
REMARK   88  A    between atoms: _213  and  _214
REMARK   89  A    between atoms: _217  and  _219
REMARK   90  A    between atoms: _219  and  _220
REMARK   91  A    between atoms: _219  and  _222
REMARK   92  A    between atoms: _222  and  _223
REMARK   93  A    between atoms: _223  and  _224
REMARK   94  A    between atoms: _227  and  _229
REMARK   95  A    between atoms: _229  and  _230
REMARK   96  A    between atoms: _229  and  _232
REMARK   97  A    between atoms: _232  and  _233
REMARK   98  A    between atoms: _236  and  _238
REMARK   99  A    between atoms: _238  and  _239
REMARK  100  A    between atoms: _238  and  _241
REMARK  101  A    between atoms: _241  and  _242
REMARK  102  A    between atoms: _252  and  _254
REMARK  103  A    between atoms: _254  and  _255
REMARK  104  A    between atoms: _257  and  _259
REMARK  105  A    between atoms: _259  and  _260
REMARK  106  A    between atoms: _259  and  _262
REMARK  107  A    between atoms: _262  and  _263
REMARK  108  A    between atoms: _268  and  _269
REMARK  109  A    between atoms: _271  and  _273
REMARK  110  A    between atoms: _273  and  _274
REMARK  111  A    between atoms: _273  and  _276
REMARK  112  A    between atoms: _276  and  _277
REMARK  113  A    between atoms: _279  and  _281
REMARK  114  A    between atoms: _281  and  _282
REMARK  115  A    between atoms: _281  and  _284
REMARK  116  A    between atoms: _284  and  _285
REMARK  117  A    between atoms: _295  and  _297
REMARK  118  A    between atoms: _297  and  _298
REMARK  119  A    between atoms: _297  and  _300
REMARK  120  A    between atoms: _303  and  _305
REMARK  121  A    between atoms: _305  and  _306
REMARK  122  A    between atoms: _305  and  _308
REMARK  123  A    between atoms: _308  and  _309
REMARK  124  A    between atoms: _312  and  _314
REMARK  125  A    between atoms: _314  and  _315
REMARK  126  A    between atoms: _314  and  _317
REMARK  127  A    between atoms: _320  and  _322
REMARK  128  A    between atoms: _322  and  _323
REMARK  129  A    between atoms: _322  and  _325
REMARK  130  A    between atoms: _325  and  _326
REMARK                            x       y       z     vdW  Elec       q    Type
REMARK                         _______ _______ _______ _____ _____    ______ ____
ROOT
ATOM      1  CG  LYS A   1      17.280  70.984  43.473  0.00  0.00    -0.000 C 
ENDROOT
BRANCH   1   2
ATOM      2  CB  LYS A   1      16.261  71.870  44.187  0.00  0.00    +0.025 C 
BRANCH   2   3
ATOM      3  CA  LYS A   1      16.908  72.778  45.222  0.00  0.00    +0.133 C 
BRANCH   3   4
ATOM      4  N   LYS A   1      17.436  71.991  46.340  0.00  0.00    -0.239 NA
ATOM      5  H   LYS A   1      17.114  71.015  46.502  0.00  0.00    +0.142 HD
ENDBRANCH   3   4
BRANCH   3   6
ATOM      6  C   LYS A   1      15.904  73.790  45.783  0.00  0.00    +0.224 C 
ATOM      7  O   LYS A   1      15.488  73.693  46.941  0.00  0.00    -0.287 OA
ENDBRANCH   3   6
ENDBRANCH   2   3
ENDBRANCH   1   2
BRANCH   1   8
ATOM      8  CD  LYS A   1      16.613  70.021  42.502  0.00  0.00    -0.024 C 
BRANCH   8   9
ATOM      9  CE  LYS A   1      17.645  69.215  41.715  0.00  0.00    -0.086 C 
BRANCH   9  10
ATOM     10  NZ  LYS A   1      16.998  68.136  40.908  0.00  0.00    +0.380 N 
ATOM     11  HZ1 LYS A   1      16.488  67.489  41.542  0.00  0.00    -0.089 HD
ATOM     12  HZ2 LYS A   1      17.728  67.609  40.387  0.00  0.00    -0.089 HD
ATOM     13  HZ3 LYS A   1      16.329  68.562  40.235  0.00  0.00    -0.089 HD
ENDBRANCH   9  10
ENDBRANCH   8   9
ENDBRANCH   1   8
TORSDOF 7
REMARK  Name = ../refined-set-2016/1fh7/1fh7_pocket.pdb
REMARK  130 active torsions:
REMARK  status: ('A' for Active; 'I' for Inactive)
REMARK    1  A    between atoms: _1  and  _3
REMARK    2  A    between atoms: _3  and  _4
REMARK    3  A    between atoms: _7  and  _9
REMARK    4  A    between atoms: _9  and  _10
REMARK    5  A    between atoms: _9  and  _12
REMARK    6  A    between atoms: _12  and  _13
REMARK    7  A    between atoms: _16  and  _18
REMARK    8  A    between atoms: _18  and  _19
REMARK    9  A    between atoms: _22  and  _24
REMARK   10  A    between atoms: _24  and  _25
REMARK   11  A    between atoms: _24  and  _27
REMARK   12  A    between atoms: _27  and  _28
REMARK   13  A    between atoms: _28  and  _29
REMARK   14  A    between atoms: _32  and  _34
REMARK   15  A    between atoms: _34  and  _35
REMARK   16  A    between atoms: _34  and  _37
REMARK   17  A    between atoms: _37  and  _38
REMARK   18  A    between atoms: _43  and  _45
REMARK   19  A    between atoms: _45  and  _46
REMARK   20  A    between atoms: _45  and  _48
REMARK   21  A    between atoms: _48  and  _49
REMARK   22  A    between atoms: _49  and  _50
REMARK   23  A    between atoms: _50  and  _51
REMARK   24  A    between atoms: _51  and  _52
REMARK   25  A    between atoms: _56  and  _58
REMARK   26  A    between atoms: _58  and  _59
REMARK   27  A    between atoms: _58  and  _61
REMARK   28  A    between atoms: _61  and  _62
REMARK   29  A    between atoms: _65  and  _67
REMARK   30  A    between atoms: _67  and  _68
REMARK   31  A    between atoms: _67  and  _70
REMARK   32  A    between atoms: _70  and  _71
REMARK   33  A    between atoms: _76  and  _78
REMARK   34  A    between atoms: _78  and  _79
REMARK   35  A    between atoms: _78  and  _81
REMARK   36  A    between atoms: _81  and  _82
REMARK   37  A    between atoms: _85  and  _87
REMARK   38  A    between atoms: _87  and  _88
REMARK   39  A    between atoms: _87  and  _90
REMARK   40  A    between atoms: _90  and  _91
REMARK   41  A    between atoms: _101  and  _103
REMARK   42  A    between atoms: _103  and  _104
REMARK   43  A    between atoms: _103  and  _106
REMARK   44  A    between atoms: _106  and  _107
REMARK   45  A    between atoms: _109  and  _111
REMARK   46  A    between atoms: _111  and  _112
REMARK   47  A    between atoms: _111  and  _114
REMARK   48  A    between atoms: _114  and  _115
REMARK   49  A    between atoms: _115  and  _116
REMARK   50  A    between atoms: _121  and  _123
REMARK   51  A    between atoms: _123  and  _124
REMARK   52  A    between atoms: _123  and  _126
REMARK   53  A    between atoms: _126  and  _127
REMARK   54  A    between atoms: _130  and  _132
REMARK   55  A    between atoms: _132  and  _133
REMARK   56  A    between atoms: _132  and  _135
REMARK   57  A    between atoms: _135  and  _136
REMARK   58  A    between atoms: _141  and  _143
REMARK   59  A    between atoms: _143  and  _144
REMARK   60  A    between atoms: _143  and  _146
REMARK   61  A    between atoms: _146  and  _147
REMARK   62  A    between atoms: _147  and  _148
REMARK   63  A    between atoms: _151  and  _153
REMARK   64  A    between atoms: _153  and  _154
REMARK   65  A    between atoms: _153  and  _156
REMARK   66  A    between atoms: _156  and  _157
REMARK   67  A    between atoms: _162  and  _164
REMARK   68  A    between atoms: _164  and  _165
REMARK   69  A    between atoms: _164  and  _167
REMARK   70  A    between atoms: _167  and  _168
REMARK   71  A    between atoms: _171  and  _173
REMARK   72  A    between atoms: _173  and  _174
REMARK   73  A    between atoms: _173  and  _176
REMARK   74  A    between atoms: _176  and  _177
REMARK   75  A    between atoms: _182  and  _183
REMARK   76  A    between atoms: _185  and  _187
REMARK   77  A    between atoms: _187  and  _188
REMARK   78  A    between atoms: _187  and  _190
REMARK   79  A    between atoms: _190  and  _191
REMARK   80  A    between atoms: _191  and  _192
REMARK   81  A    between atoms: _197  and  _199
REMARK   82  A    between atoms: _199  and  _200
REMARK   83  A    between atoms: _199  and  _202
REMARK   84  A    between atoms: _202  and  _203
REMARK   85  A    between atoms: _208  and  _210
REMARK   86  A    between atoms: _210  and  _211
REMARK   87  A    between atoms: _210  and  _213
REMARK   88  A    between atoms: _213  and  _214
REMARK   89  A    between atoms: _217  and  _219
REMARK   90  A    between atoms: _219  and  _220
REMARK   91  A    between atoms: _219  and  _222
REMARK   92  A    between atoms: _222  and  _223
REMARK   93  A    between atoms: _223  and  _224
REMARK   94  A    between atoms: _227  and  _229
REMARK   95  A    between atoms: _229  and  _230
REMARK   96  A    between atoms: _229  and  _232
REMARK   97  A    between atoms: _232  and  _233
REMARK   98  A    between atoms: _236  and  _238
REMARK   99  A    between atoms: _238  and  _239
REMARK  100  A    between atoms: _238  and  _241
REMARK  101  A    between atoms: _241  and  _242
REMARK  102  A    between atoms: _252  and  _254
REMARK  103  A    between atoms: _254  and  _255
REMARK  104  A    between atoms: _257  and  _259
REMARK  105  A    between atoms: _259  and  _260
REMARK  106  A    between atoms: _259  and  _262
REMARK  107  A    between atoms: _262  and  _263
REMARK  108  A    between atoms: _268  and  _269
REMARK  109  A    between atoms: _271  and  _273
REMARK  110  A    between atoms: _273  and  _274
REMARK  111  A    between atoms: _273  and  _276
REMARK  112  A    between atoms: _276  and  _277
REMARK  113  A    between atoms: _279  and  _281
REMARK  114  A    between atoms: _281  and  _282
REMARK  115  A    between atoms: _281  and  _284
REMARK  116  A    between atoms: _284  and  _285
REMARK  117  A    between atoms: _295  and  _297
REMARK  118  A    between atoms: _297  and  _298
REMARK  119  A    between atoms: _297  and  _300
REMARK  120  A    between atoms: _303  and  _305
REMARK  121  A    between atoms: _305  and  _306
REMARK  122  A    between atoms: _305  and  _308
REMARK  123  A    between atoms: _308  and  _309
REMARK  124  A    between atoms: _312  and  _314
REMARK  125  A    between atoms: _314  and  _315
REMARK  126  A    between atoms: _314  and  _317
REMARK  127  A    between atoms: _320  and  _322
REMARK  128  A    between atoms: _322  and  _323
REMARK  129  A    between atoms: _322  and  _325
REMARK  130  A    between atoms: _325  and  _326
REMARK                            x       y       z     vdW  Elec       q    Type
REMARK                         _______ _______ _______ _____ _____    ______ ____
ROOT
ATOM      1  CA  ASP A   1      11.337  73.821  45.524  0.00  0.00    +0.144 C 
ENDROOT
BRANCH   1   2
ATOM      2  N   ASP A   1      12.643  74.336  45.112  0.00  0.00    -0.239 NA
ATOM      3  H   ASP A   1      13.107  73.959  44.261  0.00  0.00    +0.142 HD
ENDBRANCH   1   2
BRANCH   1   4
ATOM      4  C   ASP A   1      11.368  73.133  46.888  0.00  0.00    +0.225 C 
ATOM      5  O   ASP A   1      10.380  73.144  47.620  0.00  0.00    -0.287 OA
ENDBRANCH   1   4
BRANCH   1   6
ATOM      6  CB  ASP A   1      10.774  72.876  44.456  0.00  0.00    +0.139 C 
BRANCH   6   7
ATOM      7  CG  ASP A   1      11.646  71.657  44.221  0.00  0.00    +0.367 C 
ATOM      8  OD2 ASP A   1      12.849  71.704  44.556  0.00  0.00    -0.246 OA
ATOM      9  OD1 ASP A   1      11.131  70.652  43.679  0.00  0.00    -0.246 OA
ENDBRANCH   6   7
ENDBRANCH   1   6
TORSDOF 4
REMARK  Name = ../refined-set-2016/1fh7/1fh7_pocket.pdb
REMARK  130 active torsions:
REMARK  status: ('A' for Active; 'I' for Inactive)
REMARK    1  A    between atoms: _1  and  _3
REMARK    2  A    between atoms: _3  and  _4
REMARK    3  A    between atoms: _7  and  _9
REMARK    4  A    between atoms: _9  and  _10
REMARK    5  A    between atoms: _9  and  _12
REMARK    6  A    between atoms: _12  and  _13
REMARK    7  A    between atoms: _16  and  _18
REMARK    8  A    between atoms: _18  and  _19
REMARK    9  A    between atoms: _22  and  _24
REMARK   10  A    between atoms: _24  and  _25
REMARK   11  A    between atoms: _24  and  _27
REMARK   12  A    between atoms: _27  and  _28
REMARK   13  A    between atoms: _28  and  _29
REMARK   14  A    between atoms: _32  and  _34
REMARK   15  A    between atoms: _34  and  _35
REMARK   16  A    between atoms: _34  and  _37
REMARK   17  A    between atoms: _37  and  _38
REMARK   18  A    between atoms: _43  and  _45
REMARK   19  A    between atoms: _45  and  _46
REMARK   20  A    between atoms: _45  and  _48
REMARK   21  A    between atoms: _48  and  _49
REMARK   22  A    between atoms: _49  and  _50
REMARK   23  A    between atoms: _50  and  _51
REMARK   24  A    between atoms: _51  and  _52
REMARK   25  A    between atoms: _56  and  _58
REMARK   26  A    between atoms: _58  and  _59
REMARK   27  A    between atoms: _58  and  _61
REMARK   28  A    between atoms: _61  and  _62
REMARK   29  A    between atoms: _65  and  _67
REMARK   30  A    between atoms: _67  and  _68
REMARK   31  A    between atoms: _67  and  _70
REMARK   32  A    between atoms: _70  and  _71
REMARK   33  A    between atoms: _76  and  _78
REMARK   34  A    between atoms: _78  and  _79
REMARK   35  A    between atoms: _78  and  _81
REMARK   36  A    between atoms: _81  and  _82
REMARK   37  A    between atoms: _85  and  _87
REMARK   38  A    between atoms: _87  and  _88
REMARK   39  A    between atoms: _87  and  _90
REMARK   40  A    between atoms: _90  and  _91
REMARK   41  A    between atoms: _101  and  _103
REMARK   42  A    between atoms: _103  and  _104
REMARK   43  A    between atoms: _103  and  _106
REMARK   44  A    between atoms: _106  and  _107
REMARK   45  A    between atoms: _109  and  _111
REMARK   46  A    between atoms: _111  and  _112
REMARK   47  A    between atoms: _111  and  _114
REMARK   48  A    between atoms: _114  and  _115
REMARK   49  A    between atoms: _115  and  _116
REMARK   50  A    between atoms: _121  and  _123
REMARK   51  A    between atoms: _123  and  _124
REMARK   52  A    between atoms: _123  and  _126
REMARK   53  A    between atoms: _126  and  _127
REMARK   54  A    between atoms: _130  and  _132
REMARK   55  A    between atoms: _132  and  _133
REMARK   56  A    between atoms: _132  and  _135
REMARK   57  A    between atoms: _135  and  _136
REMARK   58  A    between atoms: _141  and  _143
REMARK   59  A    between atoms: _143  and  _144
REMARK   60  A    between atoms: _143  and  _146
REMARK   61  A    between atoms: _146  and  _147
REMARK   62  A    between atoms: _147  and  _148
REMARK   63  A    between atoms: _151  and  _153
REMARK   64  A    between atoms: _153  and  _154
REMARK   65  A    between atoms: _153  and  _156
REMARK   66  A    between atoms: _156  and  _157
REMARK   67  A    between atoms: _162  and  _164
REMARK   68  A    between atoms: _164  and  _165
REMARK   69  A    between atoms: _164  and  _167
REMARK   70  A    between atoms: _167  and  _168
REMARK   71  A    between atoms: _171  and  _173
REMARK   72  A    between atoms: _173  and  _174
REMARK   73  A    between atoms: _173  and  _176
REMARK   74  A    between atoms: _176  and  _177
REMARK   75  A    between atoms: _182  and  _183
REMARK   76  A    between atoms: _185  and  _187
REMARK   77  A    between atoms: _187  and  _188
REMARK   78  A    between atoms: _187  and  _190
REMARK   79  A    between atoms: _190  and  _191
REMARK   80  A    between atoms: _191  and  _192
REMARK   81  A    between atoms: _197  and  _199
REMARK   82  A    between atoms: _199  and  _200
REMARK   83  A    between atoms: _199  and  _202
REMARK   84  A    between atoms: _202  and  _203
REMARK   85  A    between atoms: _208  and  _210
REMARK   86  A    between atoms: _210  and  _211
REMARK   87  A    between atoms: _210  and  _213
REMARK   88  A    between atoms: _213  and  _214
REMARK   89  A    between atoms: _217  and  _219
REMARK   90  A    between atoms: _219  and  _220
REMARK   91  A    between atoms: _219  and  _222
REMARK   92  A    between atoms: _222  and  _223
REMARK   93  A    between atoms: _223  and  _224
REMARK   94  A    between atoms: _227  and  _229
REMARK   95  A    between atoms: _229  and  _230
REMARK   96  A    between atoms: _229  and  _232
REMARK   97  A    between atoms: _232  and  _233
REMARK   98  A    between atoms: _236  and  _238
REMARK   99  A    between atoms: _238  and  _239
REMARK  100  A    between atoms: _238  and  _241
REMARK  101  A    between atoms: _241  and  _242
REMARK  102  A    between atoms: _252  and  _254
REMARK  103  A    between atoms: _254  and  _255
REMARK  104  A    between atoms: _257  and  _259
REMARK  105  A    between atoms: _259  and  _260
REMARK  106  A    between atoms: _259  and  _262
REMARK  107  A    between atoms: _262  and  _263
REMARK  108  A    between atoms: _268  and  _269
REMARK  109  A    between atoms: _271  and  _273
REMARK  110  A    between atoms: _273  and  _274
REMARK  111  A    between atoms: _273  and  _276
REMARK  112  A    between atoms: _276  and  _277
REMARK  113  A    between atoms: _279  and  _281
REMARK  114  A    between atoms: _281  and  _282
REMARK  115  A    between atoms: _281  and  _284
REMARK  116  A    between atoms: _284  and  _285
REMARK  117  A    between atoms: _295  and  _297
REMARK  118  A    between atoms: _297  and  _298
REMARK  119  A    between atoms: _297  and  _300
REMARK  120  A    between atoms: _303  and  _305
REMARK  121  A    between atoms: _305  and  _306
REMARK  122  A    between atoms: _305  and  _308
REMARK  123  A    between atoms: _308  and  _309
REMARK  124  A    between atoms: _312  and  _314
REMARK  125  A    between atoms: _314  and  _315
REMARK  126  A    between atoms: _314  and  _317
REMARK  127  A    between atoms: _320  and  _322
REMARK  128  A    between atoms: _322  and  _323
REMARK  129  A    between atoms: _322  and  _325
REMARK  130  A    between atoms: _325  and  _326
REMARK                            x       y       z     vdW  Elec       q    Type
REMARK                         _______ _______ _______ _____ _____    ______ ____
ROOT
ATOM      1  C   HIS A   1      21.732  72.098  44.465  0.00  0.00    +0.239 C 
ATOM      2  O   HIS A   1      21.096  71.295  45.122  0.00  0.00    -0.274 OA
ATOM      3  N   THR A   2      21.172  73.234  44.030  0.00  0.00    -0.296 N 
ATOM      4  H   THR A   2      20.179  73.393  44.293  0.00  0.00    +0.150 HD
ENDROOT
BRANCH   1   5
ATOM      5  CA  HIS A   1      23.176  71.771  44.154  0.00  0.00    +0.151 C 
BRANCH   5   6
ATOM      6  N   HIS A   1      23.893  71.745  45.412  0.00  0.00    -0.238 NA
ATOM      7  H   HIS A   1      23.352  71.411  46.235  0.00  0.00    +0.142 HD
ENDBRANCH   5   6
BRANCH   5   8
ATOM      8  CB  HIS A   1      23.294  70.362  43.577  0.00  0.00    +0.074 C 
BRANCH   8   9
ATOM      9  CG  HIS A   1      22.591  70.154  42.275  0.00  0.00    +0.082 A 
ATOM     10  CD2 HIS A   1      21.418  69.543  41.989  0.00  0.00    +0.115 A 
ATOM     11  NE2 HIS A   1      21.242  69.618  40.630  0.00  0.00    -0.221 NA
ATOM     12  CE1 HIS A   1      22.278  70.250  40.094  0.00  0.00    +0.199 A 
ATOM     13  ND1 HIS A   1      23.108  70.580  41.066  0.00  0.00    -0.227 NA
ENDBRANCH   8   9
ENDBRANCH   5   8
ENDBRANCH   1   5
BRANCH   3  14
ATOM     14  CA  THR A   2      21.811  74.279  43.221  0.00  0.00    +0.164 C 
BRANCH  14  15
ATOM     15  C   THR A   2      21.041  75.571  43.541  0.00  0.00    +0.229 C 
ATOM     16  O   THR A   2      19.876  75.534  43.913  0.00  0.00    -0.286 OA
ENDBRANCH  14  15
BRANCH  14  17
ATOM     17  CB  THR A   2      21.774  73.950  41.676  0.00  0.00    +0.136 C 
ATOM     18  CG2 THR A   2      20.391  73.522  41.234  0.00  0.00    +0.034 C 
BRANCH  17  19
ATOM     19  OG1 THR A   2      22.188  75.087  40.913  0.00  0.00    -0.382 OA
ATOM     20  HG1 THR A   2      23.112  75.335  41.168  0.00  0.00    +0.210 HD
ENDBRANCH  17  19
ENDBRANCH  14  17
ENDBRANCH   3  14
TORSDOF 8
REMARK  Name = ../refined-set-2016/1fh7/1fh7_pocket.pdb
REMARK  130 active torsions:
REMARK  status: ('A' for Active; 'I' for Inactive)
REMARK    1  A    between atoms: _1  and  _3
REMARK    2  A    between atoms: _3  and  _4
REMARK    3  A    between atoms: _7  and  _9
REMARK    4  A    between atoms: _9  and  _10
REMARK    5  A    between atoms: _9  and  _12
REMARK    6  A    between atoms: _12  and  _13
REMARK    7  A    between atoms: _16  and  _18
REMARK    8  A    between atoms: _18  and  _19
REMARK    9  A    between atoms: _22  and  _24
REMARK   10  A    between atoms: _24  and  _25
REMARK   11  A    between atoms: _24  and  _27
REMARK   12  A    between atoms: _27  and  _28
REMARK   13  A    between atoms: _28  and  _29
REMARK   14  A    between atoms: _32  and  _34
REMARK   15  A    between atoms: _34  and  _35
REMARK   16  A    between atoms: _34  and  _37
REMARK   17  A    between atoms: _37  and  _38
REMARK   18  A    between atoms: _43  and  _45
REMARK   19  A    between atoms: _45  and  _46
REMARK   20  A    between atoms: _45  and  _48
REMARK   21  A    between atoms: _48  and  _49
REMARK   22  A    between atoms: _49  and  _50
REMARK   23  A    between atoms: _50  and  _51
REMARK   24  A    between atoms: _51  and  _52
REMARK   25  A    between atoms: _56  and  _58
REMARK   26  A    between atoms: _58  and  _59
REMARK   27  A    between atoms: _58  and  _61
REMARK   28  A    between atoms: _61  and  _62
REMARK   29  A    between atoms: _65  and  _67
REMARK   30  A    between atoms: _67  and  _68
REMARK   31  A    between atoms: _67  and  _70
REMARK   32  A    between atoms: _70  and  _71
REMARK   33  A    between atoms: _76  and  _78
REMARK   34  A    between atoms: _78  and  _79
REMARK   35  A    between atoms: _78  and  _81
REMARK   36  A    between atoms: _81  and  _82
REMARK   37  A    between atoms: _85  and  _87
REMARK   38  A    between atoms: _87  and  _88
REMARK   39  A    between atoms: _87  and  _90
REMARK   40  A    between atoms: _90  and  _91
REMARK   41  A    between atoms: _101  and  _103
REMARK   42  A    between atoms: _103  and  _104
REMARK   43  A    between atoms: _103  and  _106
REMARK   44  A    between atoms: _106  and  _107
REMARK   45  A    between atoms: _109  and  _111
REMARK   46  A    between atoms: _111  and  _112
REMARK   47  A    between atoms: _111  and  _114
REMARK   48  A    between atoms: _114  and  _115
REMARK   49  A    between atoms: _115  and  _116
REMARK   50  A    between atoms: _121  and  _123
REMARK   51  A    between atoms: _123  and  _124
REMARK   52  A    between atoms: _123  and  _126
REMARK   53  A    between atoms: _126  and  _127
REMARK   54  A    between atoms: _130  and  _132
REMARK   55  A    between atoms: _132  and  _133
REMARK   56  A    between atoms: _132  and  _135
REMARK   57  A    between atoms: _135  and  _136
REMARK   58  A    between atoms: _141  and  _143
REMARK   59  A    between atoms: _143  and  _144
REMARK   60  A    between atoms: _143  and  _146
REMARK   61  A    between atoms: _146  and  _147
REMARK   62  A    between atoms: _147  and  _148
REMARK   63  A    between atoms: _151  and  _153
REMARK   64  A    between atoms: _153  and  _154
REMARK   65  A    between atoms: _153  and  _156
REMARK   66  A    between atoms: _156  and  _157
REMARK   67  A    between atoms: _162  and  _164
REMARK   68  A    between atoms: _164  and  _165
REMARK   69  A    between atoms: _164  and  _167
REMARK   70  A    between atoms: _167  and  _168
REMARK   71  A    between atoms: _171  and  _173
REMARK   72  A    between atoms: _173  and  _174
REMARK   73  A    between atoms: _173  and  _176
REMARK   74  A    between atoms: _176  and  _177
REMARK   75  A    between atoms: _182  and  _183
REMARK   76  A    between atoms: _185  and  _187
REMARK   77  A    between atoms: _187  and  _188
REMARK   78  A    between atoms: _187  and  _190
REMARK   79  A    between atoms: _190  and  _191
REMARK   80  A    between atoms: _191  and  _192
REMARK   81  A    between atoms: _197  and  _199
REMARK   82  A    between atoms: _199  and  _200
REMARK   83  A    between atoms: _199  and  _202
REMARK   84  A    between atoms: _202  and  _203
REMARK   85  A    between atoms: _208  and  _210
REMARK   86  A    between atoms: _210  and  _211
REMARK   87  A    between atoms: _210  and  _213
REMARK   88  A    between atoms: _213  and  _214
REMARK   89  A    between atoms: _217  and  _219
REMARK   90  A    between atoms: _219  and  _220
REMARK   91  A    between atoms: _219  and  _222
REMARK   92  A    between atoms: _222  and  _223
REMARK   93  A    between atoms: _223  and  _224
REMARK   94  A    between atoms: _227  and  _229
REMARK   95  A    between atoms: _229  and  _230
REMARK   96  A    between atoms: _229  and  _232
REMARK   97  A    between atoms: _232  and  _233
REMARK   98  A    between atoms: _236  and  _238
REMARK   99  A    between atoms: _238  and  _239
REMARK  100  A    between atoms: _238  and  _241
REMARK  101  A    between atoms: _241  and  _242
REMARK  102  A    between atoms: _252  and  _254
REMARK  103  A    between atoms: _254  and  _255
REMARK  104  A    between atoms: _257  and  _259
REMARK  105  A    between atoms: _259  and  _260
REMARK  106  A    between atoms: _259  and  _262
REMARK  107  A    between atoms: _262  and  _263
REMARK  108  A    between atoms: _268  and  _269
REMARK  109  A    between atoms: _271  and  _273
REMARK  110  A    between atoms: _273  and  _274
REMARK  111  A    between atoms: _273  and  _276
REMARK  112  A    between atoms: _276  and  _277
REMARK  113  A    between atoms: _279  and  _281
REMARK  114  A    between atoms: _281  and  _282
REMARK  115  A    between atoms: _281  and  _284
REMARK  116  A    between atoms: _284  and  _285
REMARK  117  A    between atoms: _295  and  _297
REMARK  118  A    between atoms: _297  and  _298
REMARK  119  A    between atoms: _297  and  _300
REMARK  120  A    between atoms: _303  and  _305
REMARK  121  A    between atoms: _305  and  _306
REMARK  122  A    between atoms: _305  and  _308
REMARK  123  A    between atoms: _308  and  _309
REMARK  124  A    between atoms: _312  and  _314
REMARK  125  A    between atoms: _314  and  _315
REMARK  126  A    between atoms: _314  and  _317
REMARK  127  A    between atoms: _320  and  _322
REMARK  128  A    between atoms: _322  and  _323
REMARK  129  A    between atoms: _322  and  _325
REMARK  130  A    between atoms: _325  and  _326
REMARK                            x       y       z     vdW  Elec       q    Type
REMARK                         _______ _______ _______ _____ _____    ______ ____
ROOT
ATOM      1  CG  TRP A   1      17.908  74.399  37.712  0.00  0.00    -0.002 A 
ATOM      2  CD2 TRP A   1      17.426  73.067  37.912  0.00  0.00    +0.013 A 
ATOM      3  CE3 TRP A   1      16.900  72.382  39.029  0.00  0.00    +0.001 A 
ATOM      4  CZ3 TRP A   1      16.516  71.046  38.870  0.00  0.00    +0.000 A 
ATOM      5  CH2 TRP A   1      16.647  70.398  37.631  0.00  0.00    +0.001 A 
ATOM      6  CZ2 TRP A   1      17.154  71.043  36.529  0.00  0.00    +0.017 A 
ATOM      7  CE2 TRP A   1      17.536  72.378  36.690  0.00  0.00    +0.056 A 
ATOM      8  NE1 TRP A   1      18.068  73.263  35.772  0.00  0.00    -0.352 N 
ATOM      9  HE1 TRP A   1      18.272  73.053  34.774  0.00  0.00    +0.166 HD
ATOM     10  CD1 TRP A   1      18.283  74.471  36.400  0.00  0.00    +0.068 A 
ENDROOT
BRANCH   1  11
ATOM     11  CB  TRP A   1      18.051  75.462  38.746  0.00  0.00    +0.053 C 
BRANCH  11  12
ATOM     12  CA  TRP A   1      17.874  76.896  38.236  0.00  0.00    +0.137 C 
BRANCH  12  13
ATOM     13  N   TRP A   1      18.153  77.827  39.322  0.00  0.00    -0.239 NA
ATOM     14  H   TRP A   1      17.365  78.162  39.912  0.00  0.00    +0.142 HD
ENDBRANCH  12  13
BRANCH  12  15
ATOM     15  C   TRP A   1      16.444  77.143  37.758  0.00  0.00    +0.224 C 
ATOM     16  O   TRP A   1      15.556  77.386  38.571  0.00  0.00    -0.287 OA
ENDBRANCH  12  15
ENDBRANCH  11  12
ENDBRANCH   1  11
TORSDOF 4
REMARK  Name = ../refined-set-2016/1fh7/1fh7_pocket.pdb
REMARK  130 active torsions:
REMARK  status: ('A' for Active; 'I' for Inactive)
REMARK    1  A    between atoms: _1  and  _3
REMARK    2  A    between atoms: _3  and  _4
REMARK    3  A    between atoms: _7  and  _9
REMARK    4  A    between atoms: _9  and  _10
REMARK    5  A    between atoms: _9  and  _12
REMARK    6  A    between atoms: _12  and  _13
REMARK    7  A    between atoms: _16  and  _18
REMARK    8  A    between atoms: _18  and  _19
REMARK    9  A    between atoms: _22  and  _24
REMARK   10  A    between atoms: _24  and  _25
REMARK   11  A    between atoms: _24  and  _27
REMARK   12  A    between atoms: _27  and  _28
REMARK   13  A    between atoms: _28  and  _29
REMARK   14  A    between atoms: _32  and  _34
REMARK   15  A    between atoms: _34  and  _35
REMARK   16  A    between atoms: _34  and  _37
REMARK   17  A    between atoms: _37  and  _38
REMARK   18  A    between atoms: _43  and  _45
REMARK   19  A    between atoms: _45  and  _46
REMARK   20  A    between atoms: _45  and  _48
REMARK   21  A    between atoms: _48  and  _49
REMARK   22  A    between atoms: _49  and  _50
REMARK   23  A    between atoms: _50  and  _51
REMARK   24  A    between atoms: _51  and  _52
REMARK   25  A    between atoms: _56  and  _58
REMARK   26  A    between atoms: _58  and  _59
REMARK   27  A    between atoms: _58  and  _61
REMARK   28  A    between atoms: _61  and  _62
REMARK   29  A    between atoms: _65  and  _67
REMARK   30  A    between atoms: _67  and  _68
REMARK   31  A    between atoms: _67  and  _70
REMARK   32  A    between atoms: _70  and  _71
REMARK   33  A    between atoms: _76  and  _78
REMARK   34  A    between atoms: _78  and  _79
REMARK   35  A    between atoms: _78  and  _81
REMARK   36  A    between atoms: _81  and  _82
REMARK   37  A    between atoms: _85  and  _87
REMARK   38  A    between atoms: _87  and  _88
REMARK   39  A    between atoms: _87  and  _90
REMARK   40  A    between atoms: _90  and  _91
REMARK   41  A    between atoms: _101  and  _103
REMARK   42  A    between atoms: _103  and  _104
REMARK   43  A    between atoms: _103  and  _106
REMARK   44  A    between atoms: _106  and  _107
REMARK   45  A    between atoms: _109  and  _111
REMARK   46  A    between atoms: _111  and  _112
REMARK   47  A    between atoms: _111  and  _114
REMARK   48  A    between atoms: _114  and  _115
REMARK   49  A    between atoms: _115  and  _116
REMARK   50  A    between atoms: _121  and  _123
REMARK   51  A    between atoms: _123  and  _124
REMARK   52  A    between atoms: _123  and  _126
REMARK   53  A    between atoms: _126  and  _127
REMARK   54  A    between atoms: _130  and  _132
REMARK   55  A    between atoms: _132  and  _133
REMARK   56  A    between atoms: _132  and  _135
REMARK   57  A    between atoms: _135  and  _136
REMARK   58  A    between atoms: _141  and  _143
REMARK   59  A    between atoms: _143  and  _144
REMARK   60  A    between atoms: _143  and  _146
REMARK   61  A    between atoms: _146  and  _147
REMARK   62  A    between atoms: _147  and  _148
REMARK   63  A    between atoms: _151  and  _153
REMARK   64  A    between atoms: _153  and  _154
REMARK   65  A    between atoms: _153  and  _156
REMARK   66  A    between atoms: _156  and  _157
REMARK   67  A    between atoms: _162  and  _164
REMARK   68  A    between atoms: _164  and  _165
REMARK   69  A    between atoms: _164  and  _167
REMARK   70  A    between atoms: _167  and  _168
REMARK   71  A    between atoms: _171  and  _173
REMARK   72  A    between atoms: _173  and  _174
REMARK   73  A    between atoms: _173  and  _176
REMARK   74  A    between atoms: _176  and  _177
REMARK   75  A    between atoms: _182  and  _183
REMARK   76  A    between atoms: _185  and  _187
REMARK   77  A    between atoms: _187  and  _188
REMARK   78  A    between atoms: _187  and  _190
REMARK   79  A    between atoms: _190  and  _191
REMARK   80  A    between atoms: _191  and  _192
REMARK   81  A    between atoms: _197  and  _199
REMARK   82  A    between atoms: _199  and  _200
REMARK   83  A    between atoms: _199  and  _202
REMARK   84  A    between atoms: _202  and  _203
REMARK   85  A    between atoms: _208  and  _210
REMARK   86  A    between atoms: _210  and  _211
REMARK   87  A    between atoms: _210  and  _213
REMARK   88  A    between atoms: _213  and  _214
REMARK   89  A    between atoms: _217  and  _219
REMARK   90  A    between atoms: _219  and  _220
REMARK   91  A    between atoms: _219  and  _222
REMARK   92  A    between atoms: _222  and  _223
REMARK   93  A    between atoms: _223  and  _224
REMARK   94  A    between atoms: _227  and  _229
REMARK   95  A    between atoms: _229  and  _230
REMARK   96  A    between atoms: _229  and  _232
REMARK   97  A    between atoms: _232  and  _233
REMARK   98  A    between atoms: _236  and  _238
REMARK   99  A    between atoms: _238  and  _239
REMARK  100  A    between atoms: _238  and  _241
REMARK  101  A    between atoms: _241  and  _242
REMARK  102  A    between atoms: _252  and  _254
REMARK  103  A    between atoms: _254  and  _255
REMARK  104  A    between atoms: _257  and  _259
REMARK  105  A    between atoms: _259  and  _260
REMARK  106  A    between atoms: _259  and  _262
REMARK  107  A    between atoms: _262  and  _263
REMARK  108  A    between atoms: _268  and  _269
REMARK  109  A    between atoms: _271  and  _273
REMARK  110  A    between atoms: _273  and  _274
REMARK  111  A    between atoms: _273  and  _276
REMARK  112  A    between atoms: _276  and  _277
REMARK  113  A    between atoms: _279  and  _281
REMARK  114  A    between atoms: _281  and  _282
REMARK  115  A    between atoms: _281  and  _284
REMARK  116  A    between atoms: _284  and  _285
REMARK  117  A    between atoms: _295  and  _297
REMARK  118  A    between atoms: _297  and  _298
REMARK  119  A    between atoms: _297  and  _300
REMARK  120  A    between atoms: _303  and  _305
REMARK  121  A    between atoms: _305  and  _306
REMARK  122  A    between atoms: _305  and  _308
REMARK  123  A    between atoms: _308  and  _309
REMARK  124  A    between atoms: _312  and  _314
REMARK  125  A    between atoms: _314  and  _315
REMARK  126  A    between atoms: _314  and  _317
REMARK  127  A    between atoms: _320  and  _322
REMARK  128  A    between atoms: _322  and  _323
REMARK  129  A    between atoms: _322  and  _325
REMARK  130  A    between atoms: _325  and  _326
REMARK                            x       y       z     vdW  Elec       q    Type
REMARK                         _______ _______ _______ _____ _____    ______ ____
ROOT
ATOM      1  C   SER A   1      13.371  73.663  38.234  0.00  0.00    +0.241 C 
ATOM      2  O   SER A   1      14.204  74.069  39.037  0.00  0.00    -0.274 OA
ATOM      3  N   GLN A   2      12.270  73.016  38.607  0.00  0.00    -0.298 N 
ATOM      4  H   GLN A   2      11.615  72.666  37.879  0.00  0.00    +0.150 HD
ENDROOT
BRANCH   1   5
ATOM      5  CA  SER A   1      13.567  73.871  36.732  0.00  0.00    +0.174 C 
BRANCH   5   6
ATOM      6  N   SER A   1      14.412  75.029  36.471  0.00  0.00    -0.236 NA
ATOM      7  H   SER A   1      15.445  74.927  36.538  0.00  0.00    +0.142 HD
ENDBRANCH   5   6
BRANCH   5   8
ATOM      8  CB  SER A   1      14.183  72.623  36.100  0.00  0.00    +0.163 C 
BRANCH   8   9
ATOM      9  OG  SER A   1      13.395  71.481  36.360  0.00  0.00    -0.380 OA
ATOM     10  H   SER A   1      13.815  70.689  35.941  0.00  0.00    +0.211 HD
ENDBRANCH   8   9
ENDBRANCH   5   8
ENDBRANCH   1   5
BRANCH   3  11
ATOM     11  CA  GLN A   2      11.960  72.786  40.014  0.00  0.00    +0.137 C 
BRANCH  11  12
ATOM     12  C   GLN A   2      11.977  74.121  40.766  0.00  0.00    +0.227 C 
ATOM     13  O   GLN A   2      12.469  74.243  41.893  0.00  0.00    -0.286 OA
ENDBRANCH  11  12
BRANCH  11  14
ATOM     14  CB  GLN A   2      12.934  71.763  40.624  0.00  0.00    +0.037 C 
BRANCH  14  15
ATOM     15  CG  GLN A   2      12.612  70.335  40.173  0.00  0.00    +0.087 C 
BRANCH  15  16
ATOM     16  CD  GLN A   2      13.539  69.282  40.752  0.00  0.00    +0.219 C 
ATOM     17  OE1 GLN A   2      13.467  68.950  41.940  0.00  0.00    -0.275 OA
ATOM     18  NE2 GLN A   2      14.416  68.751  39.914  0.00  0.00    -0.329 N 
ATOM     19 HE21 GLN A   2      15.080  68.024  40.248  0.00  0.00    +0.145 HD
ATOM     20 HE22 GLN A   2      14.441  69.061  38.922  0.00  0.00    +0.145 HD
ENDBRANCH  15  16
ENDBRANCH  14  15
ENDBRANCH  11  14
ENDBRANCH   3  11
TORSDOF 9
REMARK  Name = ../refined-set-2016/1fh7/1fh7_pocket.pdb
REMARK  130 active torsions:
REMARK  status: ('A' for Active; 'I' for Inactive)
REMARK    1  A    between atoms: _1  and  _3
REMARK    2  A    between atoms: _3  and  _4
REMARK    3  A    between atoms: _7  and  _9
REMARK    4  A    between atoms: _9  and  _10
REMARK    5  A    between atoms: _9  and  _12
REMARK    6  A    between atoms: _12  and  _13
REMARK    7  A    between atoms: _16  and  _18
REMARK    8  A    between atoms: _18  and  _19
REMARK    9  A    between atoms: _22  and  _24
REMARK   10  A    between atoms: _24  and  _25
REMARK   11  A    between atoms: _24  and  _27
REMARK   12  A    between atoms: _27  and  _28
REMARK   13  A    between atoms: _28  and  _29
REMARK   14  A    between atoms: _32  and  _34
REMARK   15  A    between atoms: _34  and  _35
REMARK   16  A    between atoms: _34  and  _37
REMARK   17  A    between atoms: _37  and  _38
REMARK   18  A    between atoms: _43  and  _45
REMARK   19  A    between atoms: _45  and  _46
REMARK   20  A    between atoms: _45  and  _48
REMARK   21  A    between atoms: _48  and  _49
REMARK   22  A    between atoms: _49  and  _50
REMARK   23  A    between atoms: _50  and  _51
REMARK   24  A    between atoms: _51  and  _52
REMARK   25  A    between atoms: _56  and  _58
REMARK   26  A    between atoms: _58  and  _59
REMARK   27  A    between atoms: _58  and  _61
REMARK   28  A    between atoms: _61  and  _62
REMARK   29  A    between atoms: _65  and  _67
REMARK   30  A    between atoms: _67  and  _68
REMARK   31  A    between atoms: _67  and  _70
REMARK   32  A    between atoms: _70  and  _71
REMARK   33  A    between atoms: _76  and  _78
REMARK   34  A    between atoms: _78  and  _79
REMARK   35  A    between atoms: _78  and  _81
REMARK   36  A    between atoms: _81  and  _82
REMARK   37  A    between atoms: _85  and  _87
REMARK   38  A    between atoms: _87  and  _88
REMARK   39  A    between atoms: _87  and  _90
REMARK   40  A    between atoms: _90  and  _91
REMARK   41  A    between atoms: _101  and  _103
REMARK   42  A    between atoms: _103  and  _104
REMARK   43  A    between atoms: _103  and  _106
REMARK   44  A    between atoms: _106  and  _107
REMARK   45  A    between atoms: _109  and  _111
REMARK   46  A    between atoms: _111  and  _112
REMARK   47  A    between atoms: _111  and  _114
REMARK   48  A    between atoms: _114  and  _115
REMARK   49  A    between atoms: _115  and  _116
REMARK   50  A    between atoms: _121  and  _123
REMARK   51  A    between atoms: _123  and  _124
REMARK   52  A    between atoms: _123  and  _126
REMARK   53  A    between atoms: _126  and  _127
REMARK   54  A    between atoms: _130  and  _132
REMARK   55  A    between atoms: _132  and  _133
REMARK   56  A    between atoms: _132  and  _135
REMARK   57  A    between atoms: _135  and  _136
REMARK   58  A    between atoms: _141  and  _143
REMARK   59  A    between atoms: _143  and  _144
REMARK   60  A    between atoms: _143  and  _146
REMARK   61  A    between atoms: _146  and  _147
REMARK   62  A    between atoms: _147  and  _148
REMARK   63  A    between atoms: _151  and  _153
REMARK   64  A    between atoms: _153  and  _154
REMARK   65  A    between atoms: _153  and  _156
REMARK   66  A    between atoms: _156  and  _157
REMARK   67  A    between atoms: _162  and  _164
REMARK   68  A    between atoms: _164  and  _165
REMARK   69  A    between atoms: _164  and  _167
REMARK   70  A    between atoms: _167  and  _168
REMARK   71  A    between atoms: _171  and  _173
REMARK   72  A    between atoms: _173  and  _174
REMARK   73  A    between atoms: _173  and  _176
REMARK   74  A    between atoms: _176  and  _177
REMARK   75  A    between atoms: _182  and  _183
REMARK   76  A    between atoms: _185  and  _187
REMARK   77  A    between atoms: _187  and  _188
REMARK   78  A    between atoms: _187  and  _190
REMARK   79  A    between atoms: _190  and  _191
REMARK   80  A    between atoms: _191  and  _192
REMARK   81  A    between atoms: _197  and  _199
REMARK   82  A    between atoms: _199  and  _200
REMARK   83  A    between atoms: _199  and  _202
REMARK   84  A    between atoms: _202  and  _203
REMARK   85  A    between atoms: _208  and  _210
REMARK   86  A    between atoms: _210  and  _211
REMARK   87  A    between atoms: _210  and  _213
REMARK   88  A    between atoms: _213  and  _214
REMARK   89  A    between atoms: _217  and  _219
REMARK   90  A    between atoms: _219  and  _220
REMARK   91  A    between atoms: _219  and  _222
REMARK   92  A    between atoms: _222  and  _223
REMARK   93  A    between atoms: _223  and  _224
REMARK   94  A    between atoms: _227  and  _229
REMARK   95  A    between atoms: _229  and  _230
REMARK   96  A    between atoms: _229  and  _232
REMARK   97  A    between atoms: _232  and  _233
REMARK   98  A    between atoms: _236  and  _238
REMARK   99  A    between atoms: _238  and  _239
REMARK  100  A    between atoms: _238  and  _241
REMARK  101  A    between atoms: _241  and  _242
REMARK  102  A    between atoms: _252  and  _254
REMARK  103  A    between atoms: _254  and  _255
REMARK  104  A    between atoms: _257  and  _259
REMARK  105  A    between atoms: _259  and  _260
REMARK  106  A    between atoms: _259  and  _262
REMARK  107  A    between atoms: _262  and  _263
REMARK  108  A    between atoms: _268  and  _269
REMARK  109  A    between atoms: _271  and  _273
REMARK  110  A    between atoms: _273  and  _274
REMARK  111  A    between atoms: _273  and  _276
REMARK  112  A    between atoms: _276  and  _277
REMARK  113  A    between atoms: _279  and  _281
REMARK  114  A    between atoms: _281  and  _282
REMARK  115  A    between atoms: _281  and  _284
REMARK  116  A    between atoms: _284  and  _285
REMARK  117  A    between atoms: _295  and  _297
REMARK  118  A    between atoms: _297  and  _298
REMARK  119  A    between atoms: _297  and  _300
REMARK  120  A    between atoms: _303  and  _305
REMARK  121  A    between atoms: _305  and  _306
REMARK  122  A    between atoms: _305  and  _308
REMARK  123  A    between atoms: _308  and  _309
REMARK  124  A    between atoms: _312  and  _314
REMARK  125  A    between atoms: _314  and  _315
REMARK  126  A    between atoms: _314  and  _317
REMARK  127  A    between atoms: _320  and  _322
REMARK  128  A    between atoms: _322  and  _323
REMARK  129  A    between atoms: _322  and  _325
REMARK  130  A    between atoms: _325  and  _326
REMARK                            x       y       z     vdW  Elec       q    Type
REMARK                         _______ _______ _______ _____ _____    ______ ____
ROOT
ATOM      1  CA  ASP A   1      26.357  74.999  41.599  0.00  0.00    +0.144 C 
ENDROOT
BRANCH   1   2
ATOM      2  N   ASP A   1      26.703  74.837  42.996  0.00  0.00    -0.239 NA
ATOM      3  H   ASP A   1      26.118  74.232  43.607  0.00  0.00    +0.142 HD
ENDBRANCH   1   2
BRANCH   1   4
ATOM      4  C   ASP A   1      25.470  76.231  41.831  0.00  0.00    +0.225 C 
ATOM      5  O   ASP A   1      24.309  76.094  42.203  0.00  0.00    -0.287 OA
ENDBRANCH   1   4
BRANCH   1   6
ATOM      6  CB  ASP A   1      25.480  73.856  41.074  0.00  0.00    +0.139 C 
BRANCH   6   7
ATOM      7  CG  ASP A   1      26.289  72.692  40.526  0.00  0.00    +0.367 C 
ATOM      8  OD2 ASP A   1      25.714  71.594  40.404  0.00  0.00    -0.246 OA
ATOM      9  OD1 ASP A   1      27.482  72.887  40.202  0.00  0.00    -0.246 OA
ENDBRANCH   6   7
ENDBRANCH   1   6
TORSDOF 4
REMARK  Name = ../refined-set-2016/1fh7/1fh7_pocket.pdb
REMARK  130 active torsions:
REMARK  status: ('A' for Active; 'I' for Inactive)
REMARK    1  A    between atoms: _1  and  _3
REMARK    2  A    between atoms: _3  and  _4
REMARK    3  A    between atoms: _7  and  _9
REMARK    4  A    between atoms: _9  and  _10
REMARK    5  A    between atoms: _9  and  _12
REMARK    6  A    between atoms: _12  and  _13
REMARK    7  A    between atoms: _16  and  _18
REMARK    8  A    between atoms: _18  and  _19
REMARK    9  A    between atoms: _22  and  _24
REMARK   10  A    between atoms: _24  and  _25
REMARK   11  A    between atoms: _24  and  _27
REMARK   12  A    between atoms: _27  and  _28
REMARK   13  A    between atoms: _28  and  _29
REMARK   14  A    between atoms: _32  and  _34
REMARK   15  A    between atoms: _34  and  _35
REMARK   16  A    between atoms: _34  and  _37
REMARK   17  A    between atoms: _37  and  _38
REMARK   18  A    between atoms: _43  and  _45
REMARK   19  A    between atoms: _45  and  _46
REMARK   20  A    between atoms: _45  and  _48
REMARK   21  A    between atoms: _48  and  _49
REMARK   22  A    between atoms: _49  and  _50
REMARK   23  A    between atoms: _50  and  _51
REMARK   24  A    between atoms: _51  and  _52
REMARK   25  A    between atoms: _56  and  _58
REMARK   26  A    between atoms: _58  and  _59
REMARK   27  A    between atoms: _58  and  _61
REMARK   28  A    between atoms: _61  and  _62
REMARK   29  A    between atoms: _65  and  _67
REMARK   30  A    between atoms: _67  and  _68
REMARK   31  A    between atoms: _67  and  _70
REMARK   32  A    between atoms: _70  and  _71
REMARK   33  A    between atoms: _76  and  _78
REMARK   34  A    between atoms: _78  and  _79
REMARK   35  A    between atoms: _78  and  _81
REMARK   36  A    between atoms: _81  and  _82
REMARK   37  A    between atoms: _85  and  _87
REMARK   38  A    between atoms: _87  and  _88
REMARK   39  A    between atoms: _87  and  _90
REMARK   40  A    between atoms: _90  and  _91
REMARK   41  A    between atoms: _101  and  _103
REMARK   42  A    between atoms: _103  and  _104
REMARK   43  A    between atoms: _103  and  _106
REMARK   44  A    between atoms: _106  and  _107
REMARK   45  A    between atoms: _109  and  _111
REMARK   46  A    between atoms: _111  and  _112
REMARK   47  A    between atoms: _111  and  _114
REMARK   48  A    between atoms: _114  and  _115
REMARK   49  A    between atoms: _115  and  _116
REMARK   50  A    between atoms: _121  and  _123
REMARK   51  A    between atoms: _123  and  _124
REMARK   52  A    between atoms: _123  and  _126
REMARK   53  A    between atoms: _126  and  _127
REMARK   54  A    between atoms: _130  and  _132
REMARK   55  A    between atoms: _132  and  _133
REMARK   56  A    between atoms: _132  and  _135
REMARK   57  A    between atoms: _135  and  _136
REMARK   58  A    between atoms: _141  and  _143
REMARK   59  A    between atoms: _143  and  _144
REMARK   60  A    between atoms: _143  and  _146
REMARK   61  A    between atoms: _146  and  _147
REMARK   62  A    between atoms: _147  and  _148
REMARK   63  A    between atoms: _151  and  _153
REMARK   64  A    between atoms: _153  and  _154
REMARK   65  A    between atoms: _153  and  _156
REMARK   66  A    between atoms: _156  and  _157
REMARK   67  A    between atoms: _162  and  _164
REMARK   68  A    between atoms: _164  and  _165
REMARK   69  A    between atoms: _164  and  _167
REMARK   70  A    between atoms: _167  and  _168
REMARK   71  A    between atoms: _171  and  _173
REMARK   72  A    between atoms: _173  and  _174
REMARK   73  A    between atoms: _173  and  _176
REMARK   74  A    between atoms: _176  and  _177
REMARK   75  A    between atoms: _182  and  _183
REMARK   76  A    between atoms: _185  and  _187
REMARK   77  A    between atoms: _187  and  _188
REMARK   78  A    between atoms: _187  and  _190
REMARK   79  A    between atoms: _190  and  _191
REMARK   80  A    between atoms: _191  and  _192
REMARK   81  A    between atoms: _197  and  _199
REMARK   82  A    between atoms: _199  and  _200
REMARK   83  A    between atoms: _199  and  _202
REMARK   84  A    between atoms: _202  and  _203
REMARK   85  A    between atoms: _208  and  _210
REMARK   86  A    between atoms: _210  and  _211
REMARK   87  A    between atoms: _210  and  _213
REMARK   88  A    between atoms: _213  and  _214
REMARK   89  A    between atoms: _217  and  _219
REMARK   90  A    between atoms: _219  and  _220
REMARK   91  A    between atoms: _219  and  _222
REMARK   92  A    between atoms: _222  and  _223
REMARK   93  A    between atoms: _223  and  _224
REMARK   94  A    between atoms: _227  and  _229
REMARK   95  A    between atoms: _229  and  _230
REMARK   96  A    between atoms: _229  and  _232
REMARK   97  A    between atoms: _232  and  _233
REMARK   98  A    between atoms: _236  and  _238
REMARK   99  A    between atoms: _238  and  _239
REMARK  100  A    between atoms: _238  and  _241
REMARK  101  A    between atoms: _241  and  _242
REMARK  102  A    between atoms: _252  and  _254
REMARK  103  A    between atoms: _254  and  _255
REMARK  104  A    between atoms: _257  and  _259
REMARK  105  A    between atoms: _259  and  _260
REMARK  106  A    between atoms: _259  and  _262
REMARK  107  A    between atoms: _262  and  _263
REMARK  108  A    between atoms: _268  and  _269
REMARK  109  A    between atoms: _271  and  _273
REMARK  110  A    between atoms: _273  and  _274
REMARK  111  A    between atoms: _273  and  _276
REMARK  112  A    between atoms: _276  and  _277
REMARK  113  A    between atoms: _279  and  _281
REMARK  114  A    between atoms: _281  and  _282
REMARK  115  A    between atoms: _281  and  _284
REMARK  116  A    between atoms: _284  and  _285
REMARK  117  A    between atoms: _295  and  _297
REMARK  118  A    between atoms: _297  and  _298
REMARK  119  A    between atoms: _297  and  _300
REMARK  120  A    between atoms: _303  and  _305
REMARK  121  A    between atoms: _305  and  _306
REMARK  122  A    between atoms: _305  and  _308
REMARK  123  A    between atoms: _308  and  _309
REMARK  124  A    between atoms: _312  and  _314
REMARK  125  A    between atoms: _314  and  _315
REMARK  126  A    between atoms: _314  and  _317
REMARK  127  A    between atoms: _320  and  _322
REMARK  128  A    between atoms: _322  and  _323
REMARK  129  A    between atoms: _322  and  _325
REMARK  130  A    between atoms: _325  and  _326
REMARK                            x       y       z     vdW  Elec       q    Type
REMARK                         _______ _______ _______ _____ _____    ______ ____
ROOT
ATOM      1  C   ASN A   1      21.828  75.770  35.198  0.00  0.00    +0.239 C 
ATOM      2  O   ASN A   1      20.773  76.399  35.141  0.00  0.00    -0.274 OA
ATOM      3  N   GLU A   2      22.380  75.167  34.146  0.00  0.00    -0.298 N 
ATOM      4  H   GLU A   2      23.293  74.687  34.277  0.00  0.00    +0.150 HD
ENDROOT
BRANCH   1   5
ATOM      5  CA  ASN A   1      22.587  75.655  36.520  0.00  0.00    +0.154 C 
BRANCH   5   6
ATOM      6  N   ASN A   1      22.620  76.920  37.254  0.00  0.00    -0.238 NA
ATOM      7  H   ASN A   1      21.721  77.391  37.482  0.00  0.00    +0.142 HD
ENDBRANCH   5   6
BRANCH   5   8
ATOM      8  CB  ASN A   1      21.926  74.600  37.423  0.00  0.00    +0.111 C 
BRANCH   8   9
ATOM      9  CG  ASN A   1      22.048  73.192  36.885  0.00  0.00    +0.221 C 
ATOM     10  ND2 ASN A   1      21.028  72.374  37.127  0.00  0.00    -0.329 N 
ATOM     11 HD21 ASN A   1      20.195  72.720  37.645  0.00  0.00    +0.145 HD
ATOM     12 HD22 ASN A   1      21.063  71.388  36.798  0.00  0.00    +0.145 HD
ATOM     13  OD1 ASN A   1      23.054  72.835  36.278  0.00  0.00    -0.275 OA
ENDBRANCH   8   9
ENDBRANCH   5   8
ENDBRANCH   1   5
BRANCH   3  14
ATOM     14  CA  GLU A   2      21.771  75.143  32.816  0.00  0.00    +0.137 C 
BRANCH  14  15
ATOM     15  C   GLU A   2      21.336  76.500  32.271  0.00  0.00    +0.227 C 
ATOM     16  O   GLU A   2      20.177  76.684  31.877  0.00  0.00    -0.286 OA
ENDBRANCH  14  15
BRANCH  14  17
ATOM     17  CB  GLU A   2      20.574  74.178  32.819  0.00  0.00    +0.039 C 
BRANCH  17  18
ATOM     18  CG  GLU A   2      20.906  72.835  33.423  0.00  0.00    +0.116 C 
BRANCH  18  19
ATOM     19  CD  GLU A   2      19.771  71.836  33.322  0.00  0.00    +0.365 C 
ATOM     20  OE2 GLU A   2      20.049  70.622  33.379  0.00  0.00    -0.246 OA
ATOM     21  OE1 GLU A   2      18.602  72.258  33.198  0.00  0.00    -0.246 OA
ENDBRANCH  18  19
ENDBRANCH  17  18
ENDBRANCH  14  17
ENDBRANCH   3  14
TORSDOF 9
REMARK  Name = ../refined-set-2016/1fh7/1fh7_pocket.pdb
REMARK  130 active torsions:
REMARK  status: ('A' for Active; 'I' for Inactive)
REMARK    1  A    between atoms: _1  and  _3
REMARK    2  A    between atoms: _3  and  _4
REMARK    3  A    between atoms: _7  and  _9
REMARK    4  A    between atoms: _9  and  _10
REMARK    5  A    between atoms: _9  and  _12
REMARK    6  A    between atoms: _12  and  _13
REMARK    7  A    between atoms: _16  and  _18
REMARK    8  A    between atoms: _18  and  _19
REMARK    9  A    between atoms: _22  and  _24
REMARK   10  A    between atoms: _24  and  _25
REMARK   11  A    between atoms: _24  and  _27
REMARK   12  A    between atoms: _27  and  _28
REMARK   13  A    between atoms: _28  and  _29
REMARK   14  A    between atoms: _32  and  _34
REMARK   15  A    between atoms: _34  and  _35
REMARK   16  A    between atoms: _34  and  _37
REMARK   17  A    between atoms: _37  and  _38
REMARK   18  A    between atoms: _43  and  _45
REMARK   19  A    between atoms: _45  and  _46
REMARK   20  A    between atoms: _45  and  _48
REMARK   21  A    between atoms: _48  and  _49
REMARK   22  A    between atoms: _49  and  _50
REMARK   23  A    between atoms: _50  and  _51
REMARK   24  A    between atoms: _51  and  _52
REMARK   25  A    between atoms: _56  and  _58
REMARK   26  A    between atoms: _58  and  _59
REMARK   27  A    between atoms: _58  and  _61
REMARK   28  A    between atoms: _61  and  _62
REMARK   29  A    between atoms: _65  and  _67
REMARK   30  A    between atoms: _67  and  _68
REMARK   31  A    between atoms: _67  and  _70
REMARK   32  A    between atoms: _70  and  _71
REMARK   33  A    between atoms: _76  and  _78
REMARK   34  A    between atoms: _78  and  _79
REMARK   35  A    between atoms: _78  and  _81
REMARK   36  A    between atoms: _81  and  _82
REMARK   37  A    between atoms: _85  and  _87
REMARK   38  A    between atoms: _87  and  _88
REMARK   39  A    between atoms: _87  and  _90
REMARK   40  A    between atoms: _90  and  _91
REMARK   41  A    between atoms: _101  and  _103
REMARK   42  A    between atoms: _103  and  _104
REMARK   43  A    between atoms: _103  and  _106
REMARK   44  A    between atoms: _106  and  _107
REMARK   45  A    between atoms: _109  and  _111
REMARK   46  A    between atoms: _111  and  _112
REMARK   47  A    between atoms: _111  and  _114
REMARK   48  A    between atoms: _114  and  _115
REMARK   49  A    between atoms: _115  and  _116
REMARK   50  A    between atoms: _121  and  _123
REMARK   51  A    between atoms: _123  and  _124
REMARK   52  A    between atoms: _123  and  _126
REMARK   53  A    between atoms: _126  and  _127
REMARK   54  A    between atoms: _130  and  _132
REMARK   55  A    between atoms: _132  and  _133
REMARK   56  A    between atoms: _132  and  _135
REMARK   57  A    between atoms: _135  and  _136
REMARK   58  A    between atoms: _141  and  _143
REMARK   59  A    between atoms: _143  and  _144
REMARK   60  A    between atoms: _143  and  _146
REMARK   61  A    between atoms: _146  and  _147
REMARK   62  A    between atoms: _147  and  _148
REMARK   63  A    between atoms: _151  and  _153
REMARK   64  A    between atoms: _153  and  _154
REMARK   65  A    between atoms: _153  and  _156
REMARK   66  A    between atoms: _156  and  _157
REMARK   67  A    between atoms: _162  and  _164
REMARK   68  A    between atoms: _164  and  _165
REMARK   69  A    between atoms: _164  and  _167
REMARK   70  A    between atoms: _167  and  _168
REMARK   71  A    between atoms: _171  and  _173
REMARK   72  A    between atoms: _173  and  _174
REMARK   73  A    between atoms: _173  and  _176
REMARK   74  A    between atoms: _176  and  _177
REMARK   75  A    between atoms: _182  and  _183
REMARK   76  A    between atoms: _185  and  _187
REMARK   77  A    between atoms: _187  and  _188
REMARK   78  A    between atoms: _187  and  _190
REMARK   79  A    between atoms: _190  and  _191
REMARK   80  A    between atoms: _191  and  _192
REMARK   81  A    between atoms: _197  and  _199
REMARK   82  A    between atoms: _199  and  _200
REMARK   83  A    between atoms: _199  and  _202
REMARK   84  A    between atoms: _202  and  _203
REMARK   85  A    between atoms: _208  and  _210
REMARK   86  A    between atoms: _210  and  _211
REMARK   87  A    between atoms: _210  and  _213
REMARK   88  A    between atoms: _213  and  _214
REMARK   89  A    between atoms: _217  and  _219
REMARK   90  A    between atoms: _219  and  _220
REMARK   91  A    between atoms: _219  and  _222
REMARK   92  A    between atoms: _222  and  _223
REMARK   93  A    between atoms: _223  and  _224
REMARK   94  A    between atoms: _227  and  _229
REMARK   95  A    between atoms: _229  and  _230
REMARK   96  A    between atoms: _229  and  _232
REMARK   97  A    between atoms: _232  and  _233
REMARK   98  A    between atoms: _236  and  _238
REMARK   99  A    between atoms: _238  and  _239
REMARK  100  A    between atoms: _238  and  _241
REMARK  101  A    between atoms: _241  and  _242
REMARK  102  A    between atoms: _252  and  _254
REMARK  103  A    between atoms: _254  and  _255
REMARK  104  A    between atoms: _257  and  _259
REMARK  105  A    between atoms: _259  and  _260
REMARK  106  A    between atoms: _259  and  _262
REMARK  107  A    between atoms: _262  and  _263
REMARK  108  A    between atoms: _268  and  _269
REMARK  109  A    between atoms: _271  and  _273
REMARK  110  A    between atoms: _273  and  _274
REMARK  111  A    between atoms: _273  and  _276
REMARK  112  A    between atoms: _276  and  _277
REMARK  113  A    between atoms: _279  and  _281
REMARK  114  A    between atoms: _281  and  _282
REMARK  115  A    between atoms: _281  and  _284
REMARK  116  A    between atoms: _284  and  _285
REMARK  117  A    between atoms: _295  and  _297
REMARK  118  A    between atoms: _297  and  _298
REMARK  119  A    between atoms: _297  and  _300
REMARK  120  A    between atoms: _303  and  _305
REMARK  121  A    between atoms: _305  and  _306
REMARK  122  A    between atoms: _305  and  _308
REMARK  123  A    between atoms: _308  and  _309
REMARK  124  A    between atoms: _312  and  _314
REMARK  125  A    between atoms: _314  and  _315
REMARK  126  A    between atoms: _314  and  _317
REMARK  127  A    between atoms: _320  and  _322
REMARK  128  A    between atoms: _322  and  _323
REMARK  129  A    between atoms: _322  and  _325
REMARK  130  A    between atoms: _325  and  _326
REMARK                            x       y       z     vdW  Elec       q    Type
REMARK                         _______ _______ _______ _____ _____    ______ ____
ROOT
ATOM      1  CA  ASP A   2      25.447  72.628  32.529  0.00  0.00    +0.160 C 
ENDROOT
BRANCH   1   4
ATOM      2  C   ASN A   1      26.031  73.839  34.560  0.00  0.00    +0.239 C 
ATOM      3  O   ASN A   1      25.169  74.697  34.366  0.00  0.00    -0.274 OA
ATOM      4  N   ASP A   2      26.253  72.834  33.721  0.00  0.00    -0.297 N 
ATOM      5  H   ASP A   2      27.029  72.172  33.923  0.00  0.00    +0.150 HD
BRANCH   2   6
ATOM      6  CA  ASN A   1      26.925  73.888  35.803  0.00  0.00    +0.154 C 
BRANCH   6   7
ATOM      7  N   ASN A   1      27.084  75.262  36.293  0.00  0.00    -0.238 NA
ATOM      8  H   ASN A   1      26.231  75.800  36.548  0.00  0.00    +0.142 HD
ENDBRANCH   6   7
BRANCH   6   9
ATOM      9  CB  ASN A   1      26.210  73.130  37.064  0.00  0.00    +0.111 C 
BRANCH   9  10
ATOM     10  CG  ASN A   1      26.345  71.634  36.878  0.00  0.00    +0.221 C 
ATOM     11  ND2 ASN A   1      25.255  70.911  37.095  0.00  0.00    -0.329 N 
ATOM     12 HD21 ASN A   1      24.365  71.379  37.361  0.00  0.00    +0.145 HD
ATOM     13 HD22 ASN A   1      25.290  69.876  36.999  0.00  0.00    +0.145 HD
ATOM     14  OD1 ASN A   1      27.422  71.129  36.561  0.00  0.00    -0.275 OA
ENDBRANCH   9  10
ENDBRANCH   6   9
ENDBRANCH   2   6
ENDBRANCH   1   4
BRANCH   1  15
ATOM     15  C   ASP A   2      25.699  71.256  31.922  0.00  0.00    +0.241 C 
ATOM     16  O   ASP A   2      26.643  70.565  32.302  0.00  0.00    -0.273 OA
ATOM     17  N   TYR A   3      24.840  70.866  30.987  0.00  0.00    -0.298 N 
ATOM     18  H   TYR A   3      24.055  71.496  30.727  0.00  0.00    +0.150 HD
BRANCH  17  19
ATOM     19  CA  TYR A   3      24.969  69.580  30.317  0.00  0.00    +0.141 C 
BRANCH  19  20
ATOM     20  C   TYR A   3      25.183  69.817  28.838  0.00  0.00    +0.227 C 
ATOM     21  O   TYR A   3      24.913  70.910  28.335  0.00  0.00    -0.286 OA
ENDBRANCH  19  20
BRANCH  19  22
ATOM     22  CB  TYR A   3      23.710  68.739  30.524  0.00  0.00    +0.054 C 
BRANCH  22  23
ATOM     23  CG  TYR A   3      22.467  69.314  29.896  0.00  0.00    -0.020 A 
ATOM     24  CD2 TYR A   3      21.657  70.192  30.608  0.00  0.00    -0.001 A 
ATOM     25  CE2 TYR A   3      20.493  70.717  30.053  0.00  0.00    +0.036 A 
ATOM     26  CZ  TYR A   3      20.131  70.365  28.763  0.00  0.00    +0.134 A 
ATOM     27  CE1 TYR A   3      20.919  69.497  28.028  0.00  0.00    +0.036 A 
ATOM     28  CD1 TYR A   3      22.087  68.975  28.595  0.00  0.00    -0.001 A 
BRANCH  26  29
ATOM     29  OH  TYR A   3      18.970  70.880  28.233  0.00  0.00    -0.506 OA
ATOM     30  HH  TYR A   3      18.849  70.539  27.312  0.00  0.00    +0.292 HD
ENDBRANCH  26  29
ENDBRANCH  22  23
ENDBRANCH  19  22
ENDBRANCH  17  19
ENDBRANCH   1  15
BRANCH   1  31
ATOM     31  CB  ASP A   2      25.711  73.697  31.473  0.00  0.00    +0.143 C 
BRANCH  31  32
ATOM     32  CG  ASP A   2      24.431  74.207  30.854  0.00  0.00    +0.367 C 
ATOM     33  OD2 ASP A   2      23.507  73.387  30.646  0.00  0.00    -0.246 OA
ATOM     34  OD1 ASP A   2      24.344  75.420  30.573  0.00  0.00    -0.246 OA
ENDBRANCH  31  32
ENDBRANCH   1  31
TORSDOF 13
REMARK  Name = ../refined-set-2016/1fh7/1fh7_pocket.pdb
REMARK  130 active torsions:
REMARK  status: ('A' for Active; 'I' for Inactive)
REMARK    1  A    between atoms: _1  and  _3
REMARK    2  A    between atoms: _3  and  _4
REMARK    3  A    between atoms: _7  and  _9
REMARK    4  A    between atoms: _9  and  _10
REMARK    5  A    between atoms: _9  and  _12
REMARK    6  A    between atoms: _12  and  _13
REMARK    7  A    between atoms: _16  and  _18
REMARK    8  A    between atoms: _18  and  _19
REMARK    9  A    between atoms: _22  and  _24
REMARK   10  A    between atoms: _24  and  _25
REMARK   11  A    between atoms: _24  and  _27
REMARK   12  A    between atoms: _27  and  _28
REMARK   13  A    between atoms: _28  and  _29
REMARK   14  A    between atoms: _32  and  _34
REMARK   15  A    between atoms: _34  and  _35
REMARK   16  A    between atoms: _34  and  _37
REMARK   17  A    between atoms: _37  and  _38
REMARK   18  A    between atoms: _43  and  _45
REMARK   19  A    between atoms: _45  and  _46
REMARK   20  A    between atoms: _45  and  _48
REMARK   21  A    between atoms: _48  and  _49
REMARK   22  A    between atoms: _49  and  _50
REMARK   23  A    between atoms: _50  and  _51
REMARK   24  A    between atoms: _51  and  _52
REMARK   25  A    between atoms: _56  and  _58
REMARK   26  A    between atoms: _58  and  _59
REMARK   27  A    between atoms: _58  and  _61
REMARK   28  A    between atoms: _61  and  _62
REMARK   29  A    between atoms: _65  and  _67
REMARK   30  A    between atoms: _67  and  _68
REMARK   31  A    between atoms: _67  and  _70
REMARK   32  A    between atoms: _70  and  _71
REMARK   33  A    between atoms: _76  and  _78
REMARK   34  A    between atoms: _78  and  _79
REMARK   35  A    between atoms: _78  and  _81
REMARK   36  A    between atoms: _81  and  _82
REMARK   37  A    between atoms: _85  and  _87
REMARK   38  A    between atoms: _87  and  _88
REMARK   39  A    between atoms: _87  and  _90
REMARK   40  A    between atoms: _90  and  _91
REMARK   41  A    between atoms: _101  and  _103
REMARK   42  A    between atoms: _103  and  _104
REMARK   43  A    between atoms: _103  and  _106
REMARK   44  A    between atoms: _106  and  _107
REMARK   45  A    between atoms: _109  and  _111
REMARK   46  A    between atoms: _111  and  _112
REMARK   47  A    between atoms: _111  and  _114
REMARK   48  A    between atoms: _114  and  _115
REMARK   49  A    between atoms: _115  and  _116
REMARK   50  A    between atoms: _121  and  _123
REMARK   51  A    between atoms: _123  and  _124
REMARK   52  A    between atoms: _123  and  _126
REMARK   53  A    between atoms: _126  and  _127
REMARK   54  A    between atoms: _130  and  _132
REMARK   55  A    between atoms: _132  and  _133
REMARK   56  A    between atoms: _132  and  _135
REMARK   57  A    between atoms: _135  and  _136
REMARK   58  A    between atoms: _141  and  _143
REMARK   59  A    between atoms: _143  and  _144
REMARK   60  A    between atoms: _143  and  _146
REMARK   61  A    between atoms: _146  and  _147
REMARK   62  A    between atoms: _147  and  _148
REMARK   63  A    between atoms: _151  and  _153
REMARK   64  A    between atoms: _153  and  _154
REMARK   65  A    between atoms: _153  and  _156
REMARK   66  A    between atoms: _156  and  _157
REMARK   67  A    between atoms: _162  and  _164
REMARK   68  A    between atoms: _164  and  _165
REMARK   69  A    between atoms: _164  and  _167
REMARK   70  A    between atoms: _167  and  _168
REMARK   71  A    between atoms: _171  and  _173
REMARK   72  A    between atoms: _173  and  _174
REMARK   73  A    between atoms: _173  and  _176
REMARK   74  A    between atoms: _176  and  _177
REMARK   75  A    between atoms: _182  and  _183
REMARK   76  A    between atoms: _185  and  _187
REMARK   77  A    between atoms: _187  and  _188
REMARK   78  A    between atoms: _187  and  _190
REMARK   79  A    between atoms: _190  and  _191
REMARK   80  A    between atoms: _191  and  _192
REMARK   81  A    between atoms: _197  and  _199
REMARK   82  A    between atoms: _199  and  _200
REMARK   83  A    between atoms: _199  and  _202
REMARK   84  A    between atoms: _202  and  _203
REMARK   85  A    between atoms: _208  and  _210
REMARK   86  A    between atoms: _210  and  _211
REMARK   87  A    between atoms: _210  and  _213
REMARK   88  A    between atoms: _213  and  _214
REMARK   89  A    between atoms: _217  and  _219
REMARK   90  A    between atoms: _219  and  _220
REMARK   91  A    between atoms: _219  and  _222
REMARK   92  A    between atoms: _222  and  _223
REMARK   93  A    between atoms: _223  and  _224
REMARK   94  A    between atoms: _227  and  _229
REMARK   95  A    between atoms: _229  and  _230
REMARK   96  A    between atoms: _229  and  _232
REMARK   97  A    between atoms: _232  and  _233
REMARK   98  A    between atoms: _236  and  _238
REMARK   99  A    between atoms: _238  and  _239
REMARK  100  A    between atoms: _238  and  _241
REMARK  101  A    between atoms: _241  and  _242
REMARK  102  A    between atoms: _252  and  _254
REMARK  103  A    between atoms: _254  and  _255
REMARK  104  A    between atoms: _257  and  _259
REMARK  105  A    between atoms: _259  and  _260
REMARK  106  A    between atoms: _259  and  _262
REMARK  107  A    between atoms: _262  and  _263
REMARK  108  A    between atoms: _268  and  _269
REMARK  109  A    between atoms: _271  and  _273
REMARK  110  A    between atoms: _273  and  _274
REMARK  111  A    between atoms: _273  and  _276
REMARK  112  A    between atoms: _276  and  _277
REMARK  113  A    between atoms: _279  and  _281
REMARK  114  A    between atoms: _281  and  _282
REMARK  115  A    between atoms: _281  and  _284
REMARK  116  A    between atoms: _284  and  _285
REMARK  117  A    between atoms: _295  and  _297
REMARK  118  A    between atoms: _297  and  _298
REMARK  119  A    between atoms: _297  and  _300
REMARK  120  A    between atoms: _303  and  _305
REMARK  121  A    between atoms: _305  and  _306
REMARK  122  A    between atoms: _305  and  _308
REMARK  123  A    between atoms: _308  and  _309
REMARK  124  A    between atoms: _312  and  _314
REMARK  125  A    between atoms: _314  and  _315
REMARK  126  A    between atoms: _314  and  _317
REMARK  127  A    between atoms: _320  and  _322
REMARK  128  A    between atoms: _322  and  _323
REMARK  129  A    between atoms: _322  and  _325
REMARK  130  A    between atoms: _325  and  _326
REMARK                            x       y       z     vdW  Elec       q    Type
REMARK                         _______ _______ _______ _____ _____    ______ ____
ROOT
ATOM      1  CB  GLN A   1      25.492  67.762  33.877  0.00  0.00    +0.035 C 
ENDROOT
BRANCH   1   2
ATOM      2  CA  GLN A   1      26.890  67.384  34.373  0.00  0.00    +0.134 C 
BRANCH   2   3
ATOM      3  N   GLN A   1      27.854  68.409  33.975  0.00  0.00    -0.239 NA
ATOM      4  H   GLN A   1      27.499  69.309  33.594  0.00  0.00    +0.142 HD
ENDBRANCH   2   3
BRANCH   2   5
ATOM      5  C   GLN A   1      27.272  66.002  33.864  0.00  0.00    +0.224 C 
ATOM      6  O   GLN A   1      27.256  65.023  34.615  0.00  0.00    -0.287 OA
ENDBRANCH   2   5
ENDBRANCH   1   2
BRANCH   1   7
ATOM      7  CG  GLN A   1      24.851  68.903  34.658  0.00  0.00    +0.087 C 
BRANCH   7   8
ATOM      8  CD  GLN A   1      23.429  69.175  34.208  0.00  0.00    +0.219 C 
ATOM      9  NE2 GLN A   1      22.942  70.381  34.447  0.00  0.00    -0.329 N 
ATOM     10 HE21 GLN A   1      23.534  71.098  34.914  0.00  0.00    +0.145 HD
ATOM     11 HE22 GLN A   1      21.967  70.613  34.168  0.00  0.00    +0.145 HD
ATOM     12  OE1 GLN A   1      22.770  68.288  33.657  0.00  0.00    -0.275 OA
ENDBRANCH   7   8
ENDBRANCH   1   7
TORSDOF 5
REMARK  Name = ../refined-set-2016/1fh7/1fh7_pocket.pdb
REMARK  130 active torsions:
REMARK  status: ('A' for Active; 'I' for Inactive)
REMARK    1  A    between atoms: _1  and  _3
REMARK    2  A    between atoms: _3  and  _4
REMARK    3  A    between atoms: _7  and  _9
REMARK    4  A    between atoms: _9  and  _10
REMARK    5  A    between atoms: _9  and  _12
REMARK    6  A    between atoms: _12  and  _13
REMARK    7  A    between atoms: _16  and  _18
REMARK    8  A    between atoms: _18  and  _19
REMARK    9  A    between atoms: _22  and  _24
REMARK   10  A    between atoms: _24  and  _25
REMARK   11  A    between atoms: _24  and  _27
REMARK   12  A    between atoms: _27  and  _28
REMARK   13  A    between atoms: _28  and  _29
REMARK   14  A    between atoms: _32  and  _34
REMARK   15  A    between atoms: _34  and  _35
REMARK   16  A    between atoms: _34  and  _37
REMARK   17  A    between atoms: _37  and  _38
REMARK   18  A    between atoms: _43  and  _45
REMARK   19  A    between atoms: _45  and  _46
REMARK   20  A    between atoms: _45  and  _48
REMARK   21  A    between atoms: _48  and  _49
REMARK   22  A    between atoms: _49  and  _50
REMARK   23  A    between atoms: _50  and  _51
REMARK   24  A    between atoms: _51  and  _52
REMARK   25  A    between atoms: _56  and  _58
REMARK   26  A    between atoms: _58  and  _59
REMARK   27  A    between atoms: _58  and  _61
REMARK   28  A    between atoms: _61  and  _62
REMARK   29  A    between atoms: _65  and  _67
REMARK   30  A    between atoms: _67  and  _68
REMARK   31  A    between atoms: _67  and  _70
REMARK   32  A    between atoms: _70  and  _71
REMARK   33  A    between atoms: _76  and  _78
REMARK   34  A    between atoms: _78  and  _79
REMARK   35  A    between atoms: _78  and  _81
REMARK   36  A    between atoms: _81  and  _82
REMARK   37  A    between atoms: _85  and  _87
REMARK   38  A    between atoms: _87  and  _88
REMARK   39  A    between atoms: _87  and  _90
REMARK   40  A    between atoms: _90  and  _91
REMARK   41  A    between atoms: _101  and  _103
REMARK   42  A    between atoms: _103  and  _104
REMARK   43  A    between atoms: _103  and  _106
REMARK   44  A    between atoms: _106  and  _107
REMARK   45  A    between atoms: _109  and  _111
REMARK   46  A    between atoms: _111  and  _112
REMARK   47  A    between atoms: _111  and  _114
REMARK   48  A    between atoms: _114  and  _115
REMARK   49  A    between atoms: _115  and  _116
REMARK   50  A    between atoms: _121  and  _123
REMARK   51  A    between atoms: _123  and  _124
REMARK   52  A    between atoms: _123  and  _126
REMARK   53  A    between atoms: _126  and  _127
REMARK   54  A    between atoms: _130  and  _132
REMARK   55  A    between atoms: _132  and  _133
REMARK   56  A    between atoms: _132  and  _135
REMARK   57  A    between atoms: _135  and  _136
REMARK   58  A    between atoms: _141  and  _143
REMARK   59  A    between atoms: _143  and  _144
REMARK   60  A    between atoms: _143  and  _146
REMARK   61  A    between atoms: _146  and  _147
REMARK   62  A    between atoms: _147  and  _148
REMARK   63  A    between atoms: _151  and  _153
REMARK   64  A    between atoms: _153  and  _154
REMARK   65  A    between atoms: _153  and  _156
REMARK   66  A    between atoms: _156  and  _157
REMARK   67  A    between atoms: _162  and  _164
REMARK   68  A    between atoms: _164  and  _165
REMARK   69  A    between atoms: _164  and  _167
REMARK   70  A    between atoms: _167  and  _168
REMARK   71  A    between atoms: _171  and  _173
REMARK   72  A    between atoms: _173  and  _174
REMARK   73  A    between atoms: _173  and  _176
REMARK   74  A    between atoms: _176  and  _177
REMARK   75  A    between atoms: _182  and  _183
REMARK   76  A    between atoms: _185  and  _187
REMARK   77  A    between atoms: _187  and  _188
REMARK   78  A    between atoms: _187  and  _190
REMARK   79  A    between atoms: _190  and  _191
REMARK   80  A    between atoms: _191  and  _192
REMARK   81  A    between atoms: _197  and  _199
REMARK   82  A    between atoms: _199  and  _200
REMARK   83  A    between atoms: _199  and  _202
REMARK   84  A    between atoms: _202  and  _203
REMARK   85  A    between atoms: _208  and  _210
REMARK   86  A    between atoms: _210  and  _211
REMARK   87  A    between atoms: _210  and  _213
REMARK   88  A    between atoms: _213  and  _214
REMARK   89  A    between atoms: _217  and  _219
REMARK   90  A    between atoms: _219  and  _220
REMARK   91  A    between atoms: _219  and  _222
REMARK   92  A    between atoms: _222  and  _223
REMARK   93  A    between atoms: _223  and  _224
REMARK   94  A    between atoms: _227  and  _229
REMARK   95  A    between atoms: _229  and  _230
REMARK   96  A    between atoms: _229  and  _232
REMARK   97  A    between atoms: _232  and  _233
REMARK   98  A    between atoms: _236  and  _238
REMARK   99  A    between atoms: _238  and  _239
REMARK  100  A    between atoms: _238  and  _241
REMARK  101  A    between atoms: _241  and  _242
REMARK  102  A    between atoms: _252  and  _254
REMARK  103  A    between atoms: _254  and  _255
REMARK  104  A    between atoms: _257  and  _259
REMARK  105  A    between atoms: _259  and  _260
REMARK  106  A    between atoms: _259  and  _262
REMARK  107  A    between atoms: _262  and  _263
REMARK  108  A    between atoms: _268  and  _269
REMARK  109  A    between atoms: _271  and  _273
REMARK  110  A    between atoms: _273  and  _274
REMARK  111  A    between atoms: _273  and  _276
REMARK  112  A    between atoms: _276  and  _277
REMARK  113  A    between atoms: _279  and  _281
REMARK  114  A    between atoms: _281  and  _282
REMARK  115  A    between atoms: _281  and  _284
REMARK  116  A    between atoms: _284  and  _285
REMARK  117  A    between atoms: _295  and  _297
REMARK  118  A    between atoms: _297  and  _298
REMARK  119  A    between atoms: _297  and  _300
REMARK  120  A    between atoms: _303  and  _305
REMARK  121  A    between atoms: _305  and  _306
REMARK  122  A    between atoms: _305  and  _308
REMARK  123  A    between atoms: _308  and  _309
REMARK  124  A    between atoms: _312  and  _314
REMARK  125  A    between atoms: _314  and  _315
REMARK  126  A    between atoms: _314  and  _317
REMARK  127  A    between atoms: _320  and  _322
REMARK  128  A    between atoms: _322  and  _323
REMARK  129  A    between atoms: _322  and  _325
REMARK  130  A    between atoms: _325  and  _326
REMARK                            x       y       z     vdW  Elec       q    Type
REMARK                         _______ _______ _______ _____ _____    ______ ____
ROOT
ATOM      1  CB  HIS A   1      23.291  63.675  31.687  0.00  0.00    +0.072 C 
ENDROOT
BRANCH   1   2
ATOM      2  CG  HIS A   1      22.969  63.951  33.116  0.00  0.00    +0.082 A 
ATOM      3  ND1 HIS A   1      22.865  62.944  34.058  0.00  0.00    -0.227 NA
ATOM      4  CE1 HIS A   1      22.588  63.475  35.236  0.00  0.00    +0.199 A 
ATOM      5  NE2 HIS A   1      22.509  64.787  35.092  0.00  0.00    -0.221 NA
ATOM      6  CD2 HIS A   1      22.740  65.107  33.779  0.00  0.00    +0.115 A 
ENDBRANCH   1   2
BRANCH   1   7
ATOM      7  CA  HIS A   1      24.636  62.995  31.487  0.00  0.00    +0.139 C 
BRANCH   7   8
ATOM      8  N   HIS A   1      25.733  63.947  31.618  0.00  0.00    -0.239 NA
ATOM      9  H   HIS A   1      25.557  64.951  31.412  0.00  0.00    +0.142 HD
ENDBRANCH   7   8
BRANCH   7  10
ATOM     10  C   HIS A   1      24.803  62.589  30.041  0.00  0.00    +0.224 C 
ATOM     11  O   HIS A   1      24.280  63.244  29.137  0.00  0.00    -0.287 OA
ENDBRANCH   7  10
ENDBRANCH   1   7
TORSDOF 4
REMARK  Name = ../refined-set-2016/1fh7/1fh7_pocket.pdb
REMARK  130 active torsions:
REMARK  status: ('A' for Active; 'I' for Inactive)
REMARK    1  A    between atoms: _1  and  _3
REMARK    2  A    between atoms: _3  and  _4
REMARK    3  A    between atoms: _7  and  _9
REMARK    4  A    between atoms: _9  and  _10
REMARK    5  A    between atoms: _9  and  _12
REMARK    6  A    between atoms: _12  and  _13
REMARK    7  A    between atoms: _16  and  _18
REMARK    8  A    between atoms: _18  and  _19
REMARK    9  A    between atoms: _22  and  _24
REMARK   10  A    between atoms: _24  and  _25
REMARK   11  A    between atoms: _24  and  _27
REMARK   12  A    between atoms: _27  and  _28
REMARK   13  A    between atoms: _28  and  _29
REMARK   14  A    between atoms: _32  and  _34
REMARK   15  A    between atoms: _34  and  _35
REMARK   16  A    between atoms: _34  and  _37
REMARK   17  A    between atoms: _37  and  _38
REMARK   18  A    between atoms: _43  and  _45
REMARK   19  A    between atoms: _45  and  _46
REMARK   20  A    between atoms: _45  and  _48
REMARK   21  A    between atoms: _48  and  _49
REMARK   22  A    between atoms: _49  and  _50
REMARK   23  A    between atoms: _50  and  _51
REMARK   24  A    between atoms: _51  and  _52
REMARK   25  A    between atoms: _56  and  _58
REMARK   26  A    between atoms: _58  and  _59
REMARK   27  A    between atoms: _58  and  _61
REMARK   28  A    between atoms: _61  and  _62
REMARK   29  A    between atoms: _65  and  _67
REMARK   30  A    between atoms: _67  and  _68
REMARK   31  A    between atoms: _67  and  _70
REMARK   32  A    between atoms: _70  and  _71
REMARK   33  A    between atoms: _76  and  _78
REMARK   34  A    between atoms: _78  and  _79
REMARK   35  A    between atoms: _78  and  _81
REMARK   36  A    between atoms: _81  and  _82
REMARK   37  A    between atoms: _85  and  _87
REMARK   38  A    between atoms: _87  and  _88
REMARK   39  A    between atoms: _87  and  _90
REMARK   40  A    between atoms: _90  and  _91
REMARK   41  A    between atoms: _101  and  _103
REMARK   42  A    between atoms: _103  and  _104
REMARK   43  A    between atoms: _103  and  _106
REMARK   44  A    between atoms: _106  and  _107
REMARK   45  A    between atoms: _109  and  _111
REMARK   46  A    between atoms: _111  and  _112
REMARK   47  A    between atoms: _111  and  _114
REMARK   48  A    between atoms: _114  and  _115
REMARK   49  A    between atoms: _115  and  _116
REMARK   50  A    between atoms: _121  and  _123
REMARK   51  A    between atoms: _123  and  _124
REMARK   52  A    between atoms: _123  and  _126
REMARK   53  A    between atoms: _126  and  _127
REMARK   54  A    between atoms: _130  and  _132
REMARK   55  A    between atoms: _132  and  _133
REMARK   56  A    between atoms: _132  and  _135
REMARK   57  A    between atoms: _135  and  _136
REMARK   58  A    between atoms: _141  and  _143
REMARK   59  A    between atoms: _143  and  _144
REMARK   60  A    between atoms: _143  and  _146
REMARK   61  A    between atoms: _146  and  _147
REMARK   62  A    between atoms: _147  and  _148
REMARK   63  A    between atoms: _151  and  _153
REMARK   64  A    between atoms: _153  and  _154
REMARK   65  A    between atoms: _153  and  _156
REMARK   66  A    between atoms: _156  and  _157
REMARK   67  A    between atoms: _162  and  _164
REMARK   68  A    between atoms: _164  and  _165
REMARK   69  A    between atoms: _164  and  _167
REMARK   70  A    between atoms: _167  and  _168
REMARK   71  A    between atoms: _171  and  _173
REMARK   72  A    between atoms: _173  and  _174
REMARK   73  A    between atoms: _173  and  _176
REMARK   74  A    between atoms: _176  and  _177
REMARK   75  A    between atoms: _182  and  _183
REMARK   76  A    between atoms: _185  and  _187
REMARK   77  A    between atoms: _187  and  _188
REMARK   78  A    between atoms: _187  and  _190
REMARK   79  A    between atoms: _190  and  _191
REMARK   80  A    between atoms: _191  and  _192
REMARK   81  A    between atoms: _197  and  _199
REMARK   82  A    between atoms: _199  and  _200
REMARK   83  A    between atoms: _199  and  _202
REMARK   84  A    between atoms: _202  and  _203
REMARK   85  A    between atoms: _208  and  _210
REMARK   86  A    between atoms: _210  and  _211
REMARK   87  A    between atoms: _210  and  _213
REMARK   88  A    between atoms: _213  and  _214
REMARK   89  A    between atoms: _217  and  _219
REMARK   90  A    between atoms: _219  and  _220
REMARK   91  A    between atoms: _219  and  _222
REMARK   92  A    between atoms: _222  and  _223
REMARK   93  A    between atoms: _223  and  _224
REMARK   94  A    between atoms: _227  and  _229
REMARK   95  A    between atoms: _229  and  _230
REMARK   96  A    between atoms: _229  and  _232
REMARK   97  A    between atoms: _232  and  _233
REMARK   98  A    between atoms: _236  and  _238
REMARK   99  A    between atoms: _238  and  _239
REMARK  100  A    between atoms: _238  and  _241
REMARK  101  A    between atoms: _241  and  _242
REMARK  102  A    between atoms: _252  and  _254
REMARK  103  A    between atoms: _254  and  _255
REMARK  104  A    between atoms: _257  and  _259
REMARK  105  A    between atoms: _259  and  _260
REMARK  106  A    between atoms: _259  and  _262
REMARK  107  A    between atoms: _262  and  _263
REMARK  108  A    between atoms: _268  and  _269
REMARK  109  A    between atoms: _271  and  _273
REMARK  110  A    between atoms: _273  and  _274
REMARK  111  A    between atoms: _273  and  _276
REMARK  112  A    between atoms: _276  and  _277
REMARK  113  A    between atoms: _279  and  _281
REMARK  114  A    between atoms: _281  and  _282
REMARK  115  A    between atoms: _281  and  _284
REMARK  116  A    between atoms: _284  and  _285
REMARK  117  A    between atoms: _295  and  _297
REMARK  118  A    between atoms: _297  and  _298
REMARK  119  A    between atoms: _297  and  _300
REMARK  120  A    between atoms: _303  and  _305
REMARK  121  A    between atoms: _305  and  _306
REMARK  122  A    between atoms: _305  and  _308
REMARK  123  A    between atoms: _308  and  _309
REMARK  124  A    between atoms: _312  and  _314
REMARK  125  A    between atoms: _314  and  _315
REMARK  126  A    between atoms: _314  and  _317
REMARK  127  A    between atoms: _320  and  _322
REMARK  128  A    between atoms: _322  and  _323
REMARK  129  A    between atoms: _322  and  _325
REMARK  130  A    between atoms: _325  and  _326
REMARK                            x       y       z     vdW  Elec       q    Type
REMARK                         _______ _______ _______ _____ _____    ______ ____
ROOT
ATOM      1  C   THR A   1      27.843  65.703  38.600  0.00  0.00    +0.241 C 
ATOM      2  O   THR A   1      27.316  65.392  39.664  0.00  0.00    -0.274 OA
ATOM      3  N   GLU A   2      27.407  65.231  37.439  0.00  0.00    -0.298 N 
ATOM      4  H   GLU A   2      27.887  65.480  36.550  0.00  0.00    +0.150 HD
ENDROOT
BRANCH   1   5
ATOM      5  CA  THR A   1      29.037  66.654  38.602  0.00  0.00    +0.172 C 
BRANCH   5   6
ATOM      6  N   THR A   1      30.005  66.639  37.514  0.00  0.00    -0.236 NA
ATOM      7  H   THR A   1      29.772  67.098  36.610  0.00  0.00    +0.142 HD
ENDBRANCH   5   6
BRANCH   5   8
ATOM      8  CB  THR A   1      28.476  68.071  38.780  0.00  0.00    +0.135 C 
ATOM      9  CG2 THR A   1      29.568  69.025  39.233  0.00  0.00    +0.034 C 
BRANCH   8  10
ATOM     10  OG1 THR A   1      27.941  68.526  37.528  0.00  0.00    -0.383 OA
ATOM     11  HG1 THR A   1      27.578  69.440  37.638  0.00  0.00    +0.210 HD
ENDBRANCH   8  10
ENDBRANCH   5   8
ENDBRANCH   1   5
BRANCH   3  12
ATOM     12  CA  GLU A   2      26.235  64.352  37.436  0.00  0.00    +0.137 C 
BRANCH  12  13
ATOM     13  C   GLU A   2      26.375  63.201  36.465  0.00  0.00    +0.227 C 
ATOM     14  O   GLU A   2      25.445  62.877  35.726  0.00  0.00    -0.286 OA
ENDBRANCH  12  13
BRANCH  12  15
ATOM     15  CB  GLU A   2      24.993  65.181  37.085  0.00  0.00    +0.039 C 
BRANCH  15  16
ATOM     16  CG  GLU A   2      24.848  66.447  37.922  0.00  0.00    +0.116 C 
BRANCH  16  17
ATOM     17  CD  GLU A   2      23.578  67.229  37.609  0.00  0.00    +0.365 C 
ATOM     18  OE2 GLU A   2      23.523  68.432  37.930  0.00  0.00    -0.246 OA
ATOM     19  OE1 GLU A   2      22.644  66.625  37.061  0.00  0.00    -0.246 OA
ENDBRANCH  16  17
ENDBRANCH  15  16
ENDBRANCH  12  15
ENDBRANCH   3  12
TORSDOF 9
REMARK  Name = ../refined-set-2016/1fh7/1fh7_pocket.pdb
REMARK  130 active torsions:
REMARK  status: ('A' for Active; 'I' for Inactive)
REMARK    1  A    between atoms: _1  and  _3
REMARK    2  A    between atoms: _3  and  _4
REMARK    3  A    between atoms: _7  and  _9
REMARK    4  A    between atoms: _9  and  _10
REMARK    5  A    between atoms: _9  and  _12
REMARK    6  A    between atoms: _12  and  _13
REMARK    7  A    between atoms: _16  and  _18
REMARK    8  A    between atoms: _18  and  _19
REMARK    9  A    between atoms: _22  and  _24
REMARK   10  A    between atoms: _24  and  _25
REMARK   11  A    between atoms: _24  and  _27
REMARK   12  A    between atoms: _27  and  _28
REMARK   13  A    between atoms: _28  and  _29
REMARK   14  A    between atoms: _32  and  _34
REMARK   15  A    between atoms: _34  and  _35
REMARK   16  A    between atoms: _34  and  _37
REMARK   17  A    between atoms: _37  and  _38
REMARK   18  A    between atoms: _43  and  _45
REMARK   19  A    between atoms: _45  and  _46
REMARK   20  A    between atoms: _45  and  _48
REMARK   21  A    between atoms: _48  and  _49
REMARK   22  A    between atoms: _49  and  _50
REMARK   23  A    between atoms: _50  and  _51
REMARK   24  A    between atoms: _51  and  _52
REMARK   25  A    between atoms: _56  and  _58
REMARK   26  A    between atoms: _58  and  _59
REMARK   27  A    between atoms: _58  and  _61
REMARK   28  A    between atoms: _61  and  _62
REMARK   29  A    between atoms: _65  and  _67
REMARK   30  A    between atoms: _67  and  _68
REMARK   31  A    between atoms: _67  and  _70
REMARK   32  A    between atoms: _70  and  _71
REMARK   33  A    between atoms: _76  and  _78
REMARK   34  A    between atoms: _78  and  _79
REMARK   35  A    between atoms: _78  and  _81
REMARK   36  A    between atoms: _81  and  _82
REMARK   37  A    between atoms: _85  and  _87
REMARK   38  A    between atoms: _87  and  _88
REMARK   39  A    between atoms: _87  and  _90
REMARK   40  A    between atoms: _90  and  _91
REMARK   41  A    between atoms: _101  and  _103
REMARK   42  A    between atoms: _103  and  _104
REMARK   43  A    between atoms: _103  and  _106
REMARK   44  A    between atoms: _106  and  _107
REMARK   45  A    between atoms: _109  and  _111
REMARK   46  A    between atoms: _111  and  _112
REMARK   47  A    between atoms: _111  and  _114
REMARK   48  A    between atoms: _114  and  _115
REMARK   49  A    between atoms: _115  and  _116
REMARK   50  A    between atoms: _121  and  _123
REMARK   51  A    between atoms: _123  and  _124
REMARK   52  A    between atoms: _123  and  _126
REMARK   53  A    between atoms: _126  and  _127
REMARK   54  A    between atoms: _130  and  _132
REMARK   55  A    between atoms: _132  and  _133
REMARK   56  A    between atoms: _132  and  _135
REMARK   57  A    between atoms: _135  and  _136
REMARK   58  A    between atoms: _141  and  _143
REMARK   59  A    between atoms: _143  and  _144
REMARK   60  A    between atoms: _143  and  _146
REMARK   61  A    between atoms: _146  and  _147
REMARK   62  A    between atoms: _147  and  _148
REMARK   63  A    between atoms: _151  and  _153
REMARK   64  A    between atoms: _153  and  _154
REMARK   65  A    between atoms: _153  and  _156
REMARK   66  A    between atoms: _156  and  _157
REMARK   67  A    between atoms: _162  and  _164
REMARK   68  A    between atoms: _164  and  _165
REMARK   69  A    between atoms: _164  and  _167
REMARK   70  A    between atoms: _167  and  _168
REMARK   71  A    between atoms: _171  and  _173
REMARK   72  A    between atoms: _173  and  _174
REMARK   73  A    between atoms: _173  and  _176
REMARK   74  A    between atoms: _176  and  _177
REMARK   75  A    between atoms: _182  and  _183
REMARK   76  A    between atoms: _185  and  _187
REMARK   77  A    between atoms: _187  and  _188
REMARK   78  A    between atoms: _187  and  _190
REMARK   79  A    between atoms: _190  and  _191
REMARK   80  A    between atoms: _191  and  _192
REMARK   81  A    between atoms: _197  and  _199
REMARK   82  A    between atoms: _199  and  _200
REMARK   83  A    between atoms: _199  and  _202
REMARK   84  A    between atoms: _202  and  _203
REMARK   85  A    between atoms: _208  and  _210
REMARK   86  A    between atoms: _210  and  _211
REMARK   87  A    between atoms: _210  and  _213
REMARK   88  A    between atoms: _213  and  _214
REMARK   89  A    between atoms: _217  and  _219
REMARK   90  A    between atoms: _219  and  _220
REMARK   91  A    between atoms: _219  and  _222
REMARK   92  A    between atoms: _222  and  _223
REMARK   93  A    between atoms: _223  and  _224
REMARK   94  A    between atoms: _227  and  _229
REMARK   95  A    between atoms: _229  and  _230
REMARK   96  A    between atoms: _229  and  _232
REMARK   97  A    between atoms: _232  and  _233
REMARK   98  A    between atoms: _236  and  _238
REMARK   99  A    between atoms: _238  and  _239
REMARK  100  A    between atoms: _238  and  _241
REMARK  101  A    between atoms: _241  and  _242
REMARK  102  A    between atoms: _252  and  _254
REMARK  103  A    between atoms: _254  and  _255
REMARK  104  A    between atoms: _257  and  _259
REMARK  105  A    between atoms: _259  and  _260
REMARK  106  A    between atoms: _259  and  _262
REMARK  107  A    between atoms: _262  and  _263
REMARK  108  A    between atoms: _268  and  _269
REMARK  109  A    between atoms: _271  and  _273
REMARK  110  A    between atoms: _273  and  _274
REMARK  111  A    between atoms: _273  and  _276
REMARK  112  A    between atoms: _276  and  _277
REMARK  113  A    between atoms: _279  and  _281
REMARK  114  A    between atoms: _281  and  _282
REMARK  115  A    between atoms: _281  and  _284
REMARK  116  A    between atoms: _284  and  _285
REMARK  117  A    between atoms: _295  and  _297
REMARK  118  A    between atoms: _297  and  _298
REMARK  119  A    between atoms: _297  and  _300
REMARK  120  A    between atoms: _303  and  _305
REMARK  121  A    between atoms: _305  and  _306
REMARK  122  A    between atoms: _305  and  _308
REMARK  123  A    between atoms: _308  and  _309
REMARK  124  A    between atoms: _312  and  _314
REMARK  125  A    between atoms: _314  and  _315
REMARK  126  A    between atoms: _314  and  _317
REMARK  127  A    between atoms: _320  and  _322
REMARK  128  A    between atoms: _322  and  _323
REMARK  129  A    between atoms: _322  and  _325
REMARK  130  A    between atoms: _325  and  _326
REMARK                            x       y       z     vdW  Elec       q    Type
REMARK                         _______ _______ _______ _____ _____    ______ ____
ROOT
ATOM      1  CA  ASP A   1      25.532  58.715  34.230  0.00  0.00    +0.144 C 
ENDROOT
BRANCH   1   2
ATOM      2  N   ASP A   1      26.319  59.921  34.449  0.00  0.00    -0.239 NA
ATOM      3  H   ASP A   1      26.480  60.553  33.638  0.00  0.00    +0.142 HD
ENDBRANCH   1   2
BRANCH   1   4
ATOM      4  C   ASP A   1      25.547  58.533  32.726  0.00  0.00    +0.225 C 
ATOM      5  O   ASP A   1      25.569  59.501  31.963  0.00  0.00    -0.287 OA
ENDBRANCH   1   4
BRANCH   1   6
ATOM      6  CB  ASP A   1      24.112  58.711  34.871  0.00  0.00    +0.139 C 
BRANCH   6   7
ATOM      7  CG  ASP A   1      23.209  59.847  34.432  0.00  0.00    +0.367 C 
ATOM      8  OD2 ASP A   1      22.274  60.139  35.209  0.00  0.00    -0.246 OA
ATOM      9  OD1 ASP A   1      23.394  60.425  33.345  0.00  0.00    -0.246 OA
ENDBRANCH   6   7
ENDBRANCH   1   6
TORSDOF 4
REMARK  Name = ../refined-set-2016/1fh7/1fh7_pocket.pdb
REMARK  130 active torsions:
REMARK  status: ('A' for Active; 'I' for Inactive)
REMARK    1  A    between atoms: _1  and  _3
REMARK    2  A    between atoms: _3  and  _4
REMARK    3  A    between atoms: _7  and  _9
REMARK    4  A    between atoms: _9  and  _10
REMARK    5  A    between atoms: _9  and  _12
REMARK    6  A    between atoms: _12  and  _13
REMARK    7  A    between atoms: _16  and  _18
REMARK    8  A    between atoms: _18  and  _19
REMARK    9  A    between atoms: _22  and  _24
REMARK   10  A    between atoms: _24  and  _25
REMARK   11  A    between atoms: _24  and  _27
REMARK   12  A    between atoms: _27  and  _28
REMARK   13  A    between atoms: _28  and  _29
REMARK   14  A    between atoms: _32  and  _34
REMARK   15  A    between atoms: _34  and  _35
REMARK   16  A    between atoms: _34  and  _37
REMARK   17  A    between atoms: _37  and  _38
REMARK   18  A    between atoms: _43  and  _45
REMARK   19  A    between atoms: _45  and  _46
REMARK   20  A    between atoms: _45  and  _48
REMARK   21  A    between atoms: _48  and  _49
REMARK   22  A    between atoms: _49  and  _50
REMARK   23  A    between atoms: _50  and  _51
REMARK   24  A    between atoms: _51  and  _52
REMARK   25  A    between atoms: _56  and  _58
REMARK   26  A    between atoms: _58  and  _59
REMARK   27  A    between atoms: _58  and  _61
REMARK   28  A    between atoms: _61  and  _62
REMARK   29  A    between atoms: _65  and  _67
REMARK   30  A    between atoms: _67  and  _68
REMARK   31  A    between atoms: _67  and  _70
REMARK   32  A    between atoms: _70  and  _71
REMARK   33  A    between atoms: _76  and  _78
REMARK   34  A    between atoms: _78  and  _79
REMARK   35  A    between atoms: _78  and  _81
REMARK   36  A    between atoms: _81  and  _82
REMARK   37  A    between atoms: _85  and  _87
REMARK   38  A    between atoms: _87  and  _88
REMARK   39  A    between atoms: _87  and  _90
REMARK   40  A    between atoms: _90  and  _91
REMARK   41  A    between atoms: _101  and  _103
REMARK   42  A    between atoms: _103  and  _104
REMARK   43  A    between atoms: _103  and  _106
REMARK   44  A    between atoms: _106  and  _107
REMARK   45  A    between atoms: _109  and  _111
REMARK   46  A    between atoms: _111  and  _112
REMARK   47  A    between atoms: _111  and  _114
REMARK   48  A    between atoms: _114  and  _115
REMARK   49  A    between atoms: _115  and  _116
REMARK   50  A    between atoms: _121  and  _123
REMARK   51  A    between atoms: _123  and  _124
REMARK   52  A    between atoms: _123  and  _126
REMARK   53  A    between atoms: _126  and  _127
REMARK   54  A    between atoms: _130  and  _132
REMARK   55  A    between atoms: _132  and  _133
REMARK   56  A    between atoms: _132  and  _135
REMARK   57  A    between atoms: _135  and  _136
REMARK   58  A    between atoms: _141  and  _143
REMARK   59  A    between atoms: _143  and  _144
REMARK   60  A    between atoms: _143  and  _146
REMARK   61  A    between atoms: _146  and  _147
REMARK   62  A    between atoms: _147  and  _148
REMARK   63  A    between atoms: _151  and  _153
REMARK   64  A    between atoms: _153  and  _154
REMARK   65  A    between atoms: _153  and  _156
REMARK   66  A    between atoms: _156  and  _157
REMARK   67  A    between atoms: _162  and  _164
REMARK   68  A    between atoms: _164  and  _165
REMARK   69  A    between atoms: _164  and  _167
REMARK   70  A    between atoms: _167  and  _168
REMARK   71  A    between atoms: _171  and  _173
REMARK   72  A    between atoms: _173  and  _174
REMARK   73  A    between atoms: _173  and  _176
REMARK   74  A    between atoms: _176  and  _177
REMARK   75  A    between atoms: _182  and  _183
REMARK   76  A    between atoms: _185  and  _187
REMARK   77  A    between atoms: _187  and  _188
REMARK   78  A    between atoms: _187  and  _190
REMARK   79  A    between atoms: _190  and  _191
REMARK   80  A    between atoms: _191  and  _192
REMARK   81  A    between atoms: _197  and  _199
REMARK   82  A    between atoms: _199  and  _200
REMARK   83  A    between atoms: _199  and  _202
REMARK   84  A    between atoms: _202  and  _203
REMARK   85  A    between atoms: _208  and  _210
REMARK   86  A    between atoms: _210  and  _211
REMARK   87  A    between atoms: _210  and  _213
REMARK   88  A    between atoms: _213  and  _214
REMARK   89  A    between atoms: _217  and  _219
REMARK   90  A    between atoms: _219  and  _220
REMARK   91  A    between atoms: _219  and  _222
REMARK   92  A    between atoms: _222  and  _223
REMARK   93  A    between atoms: _223  and  _224
REMARK   94  A    between atoms: _227  and  _229
REMARK   95  A    between atoms: _229  and  _230
REMARK   96  A    between atoms: _229  and  _232
REMARK   97  A    between atoms: _232  and  _233
REMARK   98  A    between atoms: _236  and  _238
REMARK   99  A    between atoms: _238  and  _239
REMARK  100  A    between atoms: _238  and  _241
REMARK  101  A    between atoms: _241  and  _242
REMARK  102  A    between atoms: _252  and  _254
REMARK  103  A    between atoms: _254  and  _255
REMARK  104  A    between atoms: _257  and  _259
REMARK  105  A    between atoms: _259  and  _260
REMARK  106  A    between atoms: _259  and  _262
REMARK  107  A    between atoms: _262  and  _263
REMARK  108  A    between atoms: _268  and  _269
REMARK  109  A    between atoms: _271  and  _273
REMARK  110  A    between atoms: _273  and  _274
REMARK  111  A    between atoms: _273  and  _276
REMARK  112  A    between atoms: _276  and  _277
REMARK  113  A    between atoms: _279  and  _281
REMARK  114  A    between atoms: _281  and  _282
REMARK  115  A    between atoms: _281  and  _284
REMARK  116  A    between atoms: _284  and  _285
REMARK  117  A    between atoms: _295  and  _297
REMARK  118  A    between atoms: _297  and  _298
REMARK  119  A    between atoms: _297  and  _300
REMARK  120  A    between atoms: _303  and  _305
REMARK  121  A    between atoms: _305  and  _306
REMARK  122  A    between atoms: _305  and  _308
REMARK  123  A    between atoms: _308  and  _309
REMARK  124  A    between atoms: _312  and  _314
REMARK  125  A    between atoms: _314  and  _315
REMARK  126  A    between atoms: _314  and  _317
REMARK  127  A    between atoms: _320  and  _322
REMARK  128  A    between atoms: _322  and  _323
REMARK  129  A    between atoms: _322  and  _325
REMARK  130  A    between atoms: _325  and  _326
REMARK                            x       y       z     vdW  Elec       q    Type
REMARK                         _______ _______ _______ _____ _____    ______ ____
ROOT
ATOM      1  CB  TRP A   1      23.405  61.603  38.451  0.00  0.00    +0.054 C 
ENDROOT
BRANCH   1   2
ATOM      2  CG  TRP A   1      22.387  62.598  38.891  0.00  0.00    -0.002 A 
ATOM      3  CD2 TRP A   1      22.624  63.754  39.711  0.00  0.00    +0.013 A 
ATOM      4  CE3 TRP A   1      23.764  64.302  40.316  0.00  0.00    +0.001 A 
ATOM      5  CZ3 TRP A   1      23.624  65.467  41.072  0.00  0.00    +0.000 A 
ATOM      6  CH2 TRP A   1      22.367  66.065  41.260  0.00  0.00    +0.001 A 
ATOM      7  CZ2 TRP A   1      21.235  65.544  40.682  0.00  0.00    +0.017 A 
ATOM      8  CE2 TRP A   1      21.371  64.370  39.922  0.00  0.00    +0.056 A 
ATOM      9  NE1 TRP A   1      20.436  63.646  39.241  0.00  0.00    -0.352 N 
ATOM     10  HE1 TRP A   1      19.420  63.864  39.193  0.00  0.00    +0.166 HD
ATOM     11  CD1 TRP A   1      21.054  62.582  38.628  0.00  0.00    +0.068 A 
ENDBRANCH   1   2
BRANCH   1  12
ATOM     12  CA  TRP A   1      24.124  60.957  39.637  0.00  0.00    +0.149 C 
BRANCH  12  13
ATOM     13  C   TRP A   1      23.270  59.842  40.225  0.00  0.00    +0.239 C 
ATOM     14  N   GLY A   2      23.731  59.319  41.356  0.00  0.00    -0.297 N 
ATOM     15  H   GLY A   2      24.613  59.688  41.765  0.00  0.00    +0.150 HD
ATOM     16  O   TRP A   1      22.222  59.491  39.688  0.00  0.00    -0.274 OA
BRANCH  14  17
ATOM     17  CA  GLY A   2      23.030  58.245  42.032  0.00  0.00    +0.163 C 
BRANCH  17  18
ATOM     18  C   GLY A   2      23.929  57.044  42.222  0.00  0.00    +0.229 C 
ATOM     19  O   GLY A   2      25.053  57.010  41.713  0.00  0.00    -0.286 OA
ENDBRANCH  17  18
ENDBRANCH  14  17
ENDBRANCH  12  13
BRANCH  12  20
ATOM     20  N   TRP A   1      25.465  60.538  39.231  0.00  0.00    -0.238 NA
ATOM     21  H   TRP A   1      25.655  60.313  38.234  0.00  0.00    +0.142 HD
ENDBRANCH  12  20
ENDBRANCH   1  12
TORSDOF 6
REMARK  Name = ../refined-set-2016/1fh7/1fh7_pocket.pdb
REMARK  130 active torsions:
REMARK  status: ('A' for Active; 'I' for Inactive)
REMARK    1  A    between atoms: _1  and  _3
REMARK    2  A    between atoms: _3  and  _4
REMARK    3  A    between atoms: _7  and  _9
REMARK    4  A    between atoms: _9  and  _10
REMARK    5  A    between atoms: _9  and  _12
REMARK    6  A    between atoms: _12  and  _13
REMARK    7  A    between atoms: _16  and  _18
REMARK    8  A    between atoms: _18  and  _19
REMARK    9  A    between atoms: _22  and  _24
REMARK   10  A    between atoms: _24  and  _25
REMARK   11  A    between atoms: _24  and  _27
REMARK   12  A    between atoms: _27  and  _28
REMARK   13  A    between atoms: _28  and  _29
REMARK   14  A    between atoms: _32  and  _34
REMARK   15  A    between atoms: _34  and  _35
REMARK   16  A    between atoms: _34  and  _37
REMARK   17  A    between atoms: _37  and  _38
REMARK   18  A    between atoms: _43  and  _45
REMARK   19  A    between atoms: _45  and  _46
REMARK   20  A    between atoms: _45  and  _48
REMARK   21  A    between atoms: _48  and  _49
REMARK   22  A    between atoms: _49  and  _50
REMARK   23  A    between atoms: _50  and  _51
REMARK   24  A    between atoms: _51  and  _52
REMARK   25  A    between atoms: _56  and  _58
REMARK   26  A    between atoms: _58  and  _59
REMARK   27  A    between atoms: _58  and  _61
REMARK   28  A    between atoms: _61  and  _62
REMARK   29  A    between atoms: _65  and  _67
REMARK   30  A    between atoms: _67  and  _68
REMARK   31  A    between atoms: _67  and  _70
REMARK   32  A    between atoms: _70  and  _71
REMARK   33  A    between atoms: _76  and  _78
REMARK   34  A    between atoms: _78  and  _79
REMARK   35  A    between atoms: _78  and  _81
REMARK   36  A    between atoms: _81  and  _82
REMARK   37  A    between atoms: _85  and  _87
REMARK   38  A    between atoms: _87  and  _88
REMARK   39  A    between atoms: _87  and  _90
REMARK   40  A    between atoms: _90  and  _91
REMARK   41  A    between atoms: _101  and  _103
REMARK   42  A    between atoms: _103  and  _104
REMARK   43  A    between atoms: _103  and  _106
REMARK   44  A    between atoms: _106  and  _107
REMARK   45  A    between atoms: _109  and  _111
REMARK   46  A    between atoms: _111  and  _112
REMARK   47  A    between atoms: _111  and  _114
REMARK   48  A    between atoms: _114  and  _115
REMARK   49  A    between atoms: _115  and  _116
REMARK   50  A    between atoms: _121  and  _123
REMARK   51  A    between atoms: _123  and  _124
REMARK   52  A    between atoms: _123  and  _126
REMARK   53  A    between atoms: _126  and  _127
REMARK   54  A    between atoms: _130  and  _132
REMARK   55  A    between atoms: _132  and  _133
REMARK   56  A    between atoms: _132  and  _135
REMARK   57  A    between atoms: _135  and  _136
REMARK   58  A    between atoms: _141  and  _143
REMARK   59  A    between atoms: _143  and  _144
REMARK   60  A    between atoms: _143  and  _146
REMARK   61  A    between atoms: _146  and  _147
REMARK   62  A    between atoms: _147  and  _148
REMARK   63  A    between atoms: _151  and  _153
REMARK   64  A    between atoms: _153  and  _154
REMARK   65  A    between atoms: _153  and  _156
REMARK   66  A    between atoms: _156  and  _157
REMARK   67  A    between atoms: _162  and  _164
REMARK   68  A    between atoms: _164  and  _165
REMARK   69  A    between atoms: _164  and  _167
REMARK   70  A    between atoms: _167  and  _168
REMARK   71  A    between atoms: _171  and  _173
REMARK   72  A    between atoms: _173  and  _174
REMARK   73  A    between atoms: _173  and  _176
REMARK   74  A    between atoms: _176  and  _177
REMARK   75  A    between atoms: _182  and  _183
REMARK   76  A    between atoms: _185  and  _187
REMARK   77  A    between atoms: _187  and  _188
REMARK   78  A    between atoms: _187  and  _190
REMARK   79  A    between atoms: _190  and  _191
REMARK   80  A    between atoms: _191  and  _192
REMARK   81  A    between atoms: _197  and  _199
REMARK   82  A    between atoms: _199  and  _200
REMARK   83  A    between atoms: _199  and  _202
REMARK   84  A    between atoms: _202  and  _203
REMARK   85  A    between atoms: _208  and  _210
REMARK   86  A    between atoms: _210  and  _211
REMARK   87  A    between atoms: _210  and  _213
REMARK   88  A    between atoms: _213  and  _214
REMARK   89  A    between atoms: _217  and  _219
REMARK   90  A    between atoms: _219  and  _220
REMARK   91  A    between atoms: _219  and  _222
REMARK   92  A    between atoms: _222  and  _223
REMARK   93  A    between atoms: _223  and  _224
REMARK   94  A    between atoms: _227  and  _229
REMARK   95  A    between atoms: _229  and  _230
REMARK   96  A    between atoms: _229  and  _232
REMARK   97  A    between atoms: _232  and  _233
REMARK   98  A    between atoms: _236  and  _238
REMARK   99  A    between atoms: _238  and  _239
REMARK  100  A    between atoms: _238  and  _241
REMARK  101  A    between atoms: _241  and  _242
REMARK  102  A    between atoms: _252  and  _254
REMARK  103  A    between atoms: _254  and  _255
REMARK  104  A    between atoms: _257  and  _259
REMARK  105  A    between atoms: _259  and  _260
REMARK  106  A    between atoms: _259  and  _262
REMARK  107  A    between atoms: _262  and  _263
REMARK  108  A    between atoms: _268  and  _269
REMARK  109  A    between atoms: _271  and  _273
REMARK  110  A    between atoms: _273  and  _274
REMARK  111  A    between atoms: _273  and  _276
REMARK  112  A    between atoms: _276  and  _277
REMARK  113  A    between atoms: _279  and  _281
REMARK  114  A    between atoms: _281  and  _282
REMARK  115  A    between atoms: _281  and  _284
REMARK  116  A    between atoms: _284  and  _285
REMARK  117  A    between atoms: _295  and  _297
REMARK  118  A    between atoms: _297  and  _298
REMARK  119  A    between atoms: _297  and  _300
REMARK  120  A    between atoms: _303  and  _305
REMARK  121  A    between atoms: _305  and  _306
REMARK  122  A    between atoms: _305  and  _308
REMARK  123  A    between atoms: _308  and  _309
REMARK  124  A    between atoms: _312  and  _314
REMARK  125  A    between atoms: _314  and  _315
REMARK  126  A    between atoms: _314  and  _317
REMARK  127  A    between atoms: _320  and  _322
REMARK  128  A    between atoms: _322  and  _323
REMARK  129  A    between atoms: _322  and  _325
REMARK  130  A    between atoms: _325  and  _326
REMARK                            x       y       z     vdW  Elec       q    Type
REMARK                         _______ _______ _______ _____ _____    ______ ____
ROOT
ATOM      1  C   SER A   2      17.008  57.280  38.124  0.00  0.00    +0.243 C 
ATOM      2  O   SER A   2      15.925  56.741  37.920  0.00  0.00    -0.273 OA
ATOM      3  N   TRP A   3      17.239  58.559  37.844  0.00  0.00    -0.297 N 
ATOM      4  H   TRP A   3      18.184  58.952  38.031  0.00  0.00    +0.150 HD
ENDROOT
BRANCH   3   5
ATOM      5  CA  TRP A   3      16.207  59.433  37.281  0.00  0.00    +0.153 C 
BRANCH   5   6
ATOM      6  C   TRP A   3      15.954  59.210  35.794  0.00  0.00    +0.241 C 
ATOM      7  O   TRP A   3      14.933  59.650  35.267  0.00  0.00    -0.273 OA
ATOM      8  N   VAL A   4      16.876  58.538  35.122  0.00  0.00    -0.298 N 
ATOM      9  H   VAL A   4      17.690  58.136  35.629  0.00  0.00    +0.150 HD
BRANCH   8  10
ATOM     10  CA  VAL A   4      16.765  58.354  33.681  0.00  0.00    +0.137 C 
BRANCH  10  11
ATOM     11  CB  VAL A   4      18.024  57.629  33.137  0.00  0.00    +0.026 C 
ATOM     12  CG2 VAL A   4      19.258  58.499  33.395  0.00  0.00    +0.002 C 
ATOM     13  CG1 VAL A   4      17.882  57.372  31.645  0.00  0.00    +0.002 C 
ENDBRANCH  10  11
BRANCH  10  14
ATOM     14  C   VAL A   4      15.492  57.727  33.097  0.00  0.00    +0.227 C 
ATOM     15  O   VAL A   4      14.810  58.370  32.295  0.00  0.00    -0.286 OA
ENDBRANCH  10  14
ENDBRANCH   8  10
ENDBRANCH   5   6
BRANCH   5  16
ATOM     16  CB  TRP A   3      16.609  60.905  37.443  0.00  0.00    +0.057 C 
BRANCH  16  17
ATOM     17  CG  TRP A   3      17.690  61.344  36.470  0.00  0.00    -0.002 A 
ATOM     18  CD1 TRP A   3      18.929  60.789  36.320  0.00  0.00    +0.068 A 
ATOM     19  NE1 TRP A   3      19.639  61.459  35.350  0.00  0.00    -0.352 N 
ATOM     20  HE1 TRP A   3      20.607  61.231  35.044  0.00  0.00    +0.166 HD
ATOM     21  CE2 TRP A   3      18.867  62.473  34.853  0.00  0.00    +0.056 A 
ATOM     22  CZ2 TRP A   3      19.146  63.413  33.851  0.00  0.00    +0.017 A 
ATOM     23  CH2 TRP A   3      18.170  64.330  33.554  0.00  0.00    +0.001 A 
ATOM     24  CZ3 TRP A   3      16.923  64.312  34.205  0.00  0.00    +0.000 A 
ATOM     25  CE3 TRP A   3      16.644  63.375  35.199  0.00  0.00    +0.001 A 
ATOM     26  CD2 TRP A   3      17.622  62.428  35.521  0.00  0.00    +0.013 A 
ENDBRANCH  16  17
ENDBRANCH   5  16
ENDBRANCH   3   5
BRANCH   1  27
ATOM     27  CA  SER A   2      18.175  56.492  38.716  0.00  0.00    +0.178 C 
BRANCH  27  30
ATOM     28  C   TYR A   1      16.853  55.919  40.686  0.00  0.00    +0.239 C 
ATOM     29  O   TYR A   1      16.390  57.060  40.768  0.00  0.00    -0.274 OA
ATOM     30  N   SER A   2      17.711  55.554  39.738  0.00  0.00    -0.295 N 
ATOM     31  H   SER A   2      18.062  54.575  39.723  0.00  0.00    +0.150 HD
BRANCH  28  32
ATOM     32  CA  TYR A   1      16.449  54.853  41.695  0.00  0.00    +0.149 C 
BRANCH  32  33
ATOM     33  N   TYR A   1      16.974  53.516  41.434  0.00  0.00    -0.238 NA
ATOM     34  H   TYR A   1      18.001  53.357  41.484  0.00  0.00    +0.142 HD
ENDBRANCH  32  33
BRANCH  32  35
ATOM     35  CB  TYR A   1      16.885  55.281  43.091  0.00  0.00    +0.053 C 
BRANCH  35  36
ATOM     36  CG  TYR A   1      16.360  54.376  44.180  0.00  0.00    -0.020 A 
ATOM     37  CD2 TYR A   1      17.191  53.937  45.212  0.00  0.00    -0.001 A 
ATOM     38  CE2 TYR A   1      16.697  53.121  46.231  0.00  0.00    +0.036 A 
ATOM     39  CZ  TYR A   1      15.363  52.747  46.219  0.00  0.00    +0.134 A 
ATOM     40  CE1 TYR A   1      14.524  53.175  45.199  0.00  0.00    +0.036 A 
ATOM     41  CD1 TYR A   1      15.027  53.984  44.193  0.00  0.00    -0.001 A 
BRANCH  39  42
ATOM     42  OH  TYR A   1      14.851  51.941  47.209  0.00  0.00    -0.506 OA
ATOM     43  HH  TYR A   1      15.566  51.722  47.858  0.00  0.00    +0.292 HD
ENDBRANCH  39  42
ENDBRANCH  35  36
ENDBRANCH  32  35
ENDBRANCH  28  32
ENDBRANCH  27  30
BRANCH  27  44
ATOM     44  CB  SER A   2      18.915  55.746  37.596  0.00  0.00    +0.166 C 
BRANCH  44  45
ATOM     45  OG  SER A   2      19.328  56.629  36.569  0.00  0.00    -0.380 OA
ATOM     46  H   SER A   2      19.937  57.311  36.947  0.00  0.00    +0.211 HD
ENDBRANCH  44  45
ENDBRANCH  27  44
ENDBRANCH   1  27
TORSDOF 16
REMARK  Name = ../refined-set-2016/1fh7/1fh7_pocket.pdb
REMARK  130 active torsions:
REMARK  status: ('A' for Active; 'I' for Inactive)
REMARK    1  A    between atoms: _1  and  _3
REMARK    2  A    between atoms: _3  and  _4
REMARK    3  A    between atoms: _7  and  _9
REMARK    4  A    between atoms: _9  and  _10
REMARK    5  A    between atoms: _9  and  _12
REMARK    6  A    between atoms: _12  and  _13
REMARK    7  A    between atoms: _16  and  _18
REMARK    8  A    between atoms: _18  and  _19
REMARK    9  A    between atoms: _22  and  _24
REMARK   10  A    between atoms: _24  and  _25
REMARK   11  A    between atoms: _24  and  _27
REMARK   12  A    between atoms: _27  and  _28
REMARK   13  A    between atoms: _28  and  _29
REMARK   14  A    between atoms: _32  and  _34
REMARK   15  A    between atoms: _34  and  _35
REMARK   16  A    between atoms: _34  and  _37
REMARK   17  A    between atoms: _37  and  _38
REMARK   18  A    between atoms: _43  and  _45
REMARK   19  A    between atoms: _45  and  _46
REMARK   20  A    between atoms: _45  and  _48
REMARK   21  A    between atoms: _48  and  _49
REMARK   22  A    between atoms: _49  and  _50
REMARK   23  A    between atoms: _50  and  _51
REMARK   24  A    between atoms: _51  and  _52
REMARK   25  A    between atoms: _56  and  _58
REMARK   26  A    between atoms: _58  and  _59
REMARK   27  A    between atoms: _58  and  _61
REMARK   28  A    between atoms: _61  and  _62
REMARK   29  A    between atoms: _65  and  _67
REMARK   30  A    between atoms: _67  and  _68
REMARK   31  A    between atoms: _67  and  _70
REMARK   32  A    between atoms: _70  and  _71
REMARK   33  A    between atoms: _76  and  _78
REMARK   34  A    between atoms: _78  and  _79
REMARK   35  A    between atoms: _78  and  _81
REMARK   36  A    between atoms: _81  and  _82
REMARK   37  A    between atoms: _85  and  _87
REMARK   38  A    between atoms: _87  and  _88
REMARK   39  A    between atoms: _87  and  _90
REMARK   40  A    between atoms: _90  and  _91
REMARK   41  A    between atoms: _101  and  _103
REMARK   42  A    between atoms: _103  and  _104
REMARK   43  A    between atoms: _103  and  _106
REMARK   44  A    between atoms: _106  and  _107
REMARK   45  A    between atoms: _109  and  _111
REMARK   46  A    between atoms: _111  and  _112
REMARK   47  A    between atoms: _111  and  _114
REMARK   48  A    between atoms: _114  and  _115
REMARK   49  A    between atoms: _115  and  _116
REMARK   50  A    between atoms: _121  and  _123
REMARK   51  A    between atoms: _123  and  _124
REMARK   52  A    between atoms: _123  and  _126
REMARK   53  A    between atoms: _126  and  _127
REMARK   54  A    between atoms: _130  and  _132
REMARK   55  A    between atoms: _132  and  _133
REMARK   56  A    between atoms: _132  and  _135
REMARK   57  A    between atoms: _135  and  _136
REMARK   58  A    between atoms: _141  and  _143
REMARK   59  A    between atoms: _143  and  _144
REMARK   60  A    between atoms: _143  and  _146
REMARK   61  A    between atoms: _146  and  _147
REMARK   62  A    between atoms: _147  and  _148
REMARK   63  A    between atoms: _151  and  _153
REMARK   64  A    between atoms: _153  and  _154
REMARK   65  A    between atoms: _153  and  _156
REMARK   66  A    between atoms: _156  and  _157
REMARK   67  A    between atoms: _162  and  _164
REMARK   68  A    between atoms: _164  and  _165
REMARK   69  A    between atoms: _164  and  _167
REMARK   70  A    between atoms: _167  and  _168
REMARK   71  A    between atoms: _171  and  _173
REMARK   72  A    between atoms: _173  and  _174
REMARK   73  A    between atoms: _173  and  _176
REMARK   74  A    between atoms: _176  and  _177
REMARK   75  A    between atoms: _182  and  _183
REMARK   76  A    between atoms: _185  and  _187
REMARK   77  A    between atoms: _187  and  _188
REMARK   78  A    between atoms: _187  and  _190
REMARK   79  A    between atoms: _190  and  _191
REMARK   80  A    between atoms: _191  and  _192
REMARK   81  A    between atoms: _197  and  _199
REMARK   82  A    between atoms: _199  and  _200
REMARK   83  A    between atoms: _199  and  _202
REMARK   84  A    between atoms: _202  and  _203
REMARK   85  A    between atoms: _208  and  _210
REMARK   86  A    between atoms: _210  and  _211
REMARK   87  A    between atoms: _210  and  _213
REMARK   88  A    between atoms: _213  and  _214
REMARK   89  A    between atoms: _217  and  _219
REMARK   90  A    between atoms: _219  and  _220
REMARK   91  A    between atoms: _219  and  _222
REMARK   92  A    between atoms: _222  and  _223
REMARK   93  A    between atoms: _223  and  _224
REMARK   94  A    between atoms: _227  and  _229
REMARK   95  A    between atoms: _229  and  _230
REMARK   96  A    between atoms: _229  and  _232
REMARK   97  A    between atoms: _232  and  _233
REMARK   98  A    between atoms: _236  and  _238
REMARK   99  A    between atoms: _238  and  _239
REMARK  100  A    between atoms: _238  and  _241
REMARK  101  A    between atoms: _241  and  _242
REMARK  102  A    between atoms: _252  and  _254
REMARK  103  A    between atoms: _254  and  _255
REMARK  104  A    between atoms: _257  and  _259
REMARK  105  A    between atoms: _259  and  _260
REMARK  106  A    between atoms: _259  and  _262
REMARK  107  A    between atoms: _262  and  _263
REMARK  108  A    between atoms: _268  and  _269
REMARK  109  A    between atoms: _271  and  _273
REMARK  110  A    between atoms: _273  and  _274
REMARK  111  A    between atoms: _273  and  _276
REMARK  112  A    between atoms: _276  and  _277
REMARK  113  A    between atoms: _279  and  _281
REMARK  114  A    between atoms: _281  and  _282
REMARK  115  A    between atoms: _281  and  _284
REMARK  116  A    between atoms: _284  and  _285
REMARK  117  A    between atoms: _295  and  _297
REMARK  118  A    between atoms: _297  and  _298
REMARK  119  A    between atoms: _297  and  _300
REMARK  120  A    between atoms: _303  and  _305
REMARK  121  A    between atoms: _305  and  _306
REMARK  122  A    between atoms: _305  and  _308
REMARK  123  A    between atoms: _308  and  _309
REMARK  124  A    between atoms: _312  and  _314
REMARK  125  A    between atoms: _314  and  _315
REMARK  126  A    between atoms: _314  and  _317
REMARK  127  A    between atoms: _320  and  _322
REMARK  128  A    between atoms: _322  and  _323
REMARK  129  A    between atoms: _322  and  _325
REMARK  130  A    between atoms: _325  and  _326
REMARK                            x       y       z     vdW  Elec       q    Type
REMARK                         _______ _______ _______ _____ _____    ______ ____
ROOT
ATOM      1  CA  VAL A   2      12.718  61.173  31.941  0.00  0.00    +0.148 C 
ENDROOT
BRANCH   1   3
ATOM      2  C   ASP A   1      11.285  59.548  33.048  0.00  0.00    +0.239 C 
ATOM      3  N   VAL A   2      12.506  59.985  32.765  0.00  0.00    -0.297 N 
ATOM      4  H   VAL A   2      13.330  59.471  33.138  0.00  0.00    +0.150 HD
ATOM      5  O   ASP A   1      10.266  60.096  32.623  0.00  0.00    -0.274 OA
BRANCH   2   6
ATOM      6  CA  ASP A   1      11.179  58.311  33.937  0.00  0.00    +0.156 C 
BRANCH   6   7
ATOM      7  N   ASP A   1      12.347  57.442  33.921  0.00  0.00    -0.238 NA
ATOM      8  H   ASP A   1      12.925  57.350  34.781  0.00  0.00    +0.142 HD
ENDBRANCH   6   7
BRANCH   6   9
ATOM      9  CB  ASP A   1      10.875  58.742  35.375  0.00  0.00    +0.140 C 
BRANCH   9  10
ATOM     10  CG  ASP A   1      10.328  57.608  36.221  0.00  0.00    +0.367 C 
ATOM     11  OD2 ASP A   1       9.989  57.853  37.395  0.00  0.00    -0.246 OA
ATOM     12  OD1 ASP A   1      10.235  56.471  35.710  0.00  0.00    -0.246 OA
ENDBRANCH   9  10
ENDBRANCH   6   9
ENDBRANCH   2   6
ENDBRANCH   1   3
BRANCH   1  13
ATOM     13  C   VAL A   2      13.003  60.867  30.471  0.00  0.00    +0.241 C 
ATOM     14  N   PHE A   3      13.684  59.754  30.228  0.00  0.00    -0.298 N 
ATOM     15  H   PHE A   3      13.966  59.157  31.032  0.00  0.00    +0.150 HD
ATOM     16  O   VAL A   2      12.617  61.629  29.580  0.00  0.00    -0.273 OA
BRANCH  14  17
ATOM     17  CA  PHE A   3      14.053  59.333  28.881  0.00  0.00    +0.141 C 
BRANCH  17  18
ATOM     18  C   PHE A   3      13.423  57.976  28.593  0.00  0.00    +0.227 C 
ATOM     19  O   PHE A   3      14.071  56.941  28.751  0.00  0.00    -0.286 OA
ENDBRANCH  17  18
BRANCH  17  20
ATOM     20  CB  PHE A   3      15.573  59.222  28.784  0.00  0.00    +0.054 C 
BRANCH  20  21
ATOM     21  CG  PHE A   3      16.297  60.492  29.136  0.00  0.00    -0.020 A 
ATOM     22  CD2 PHE A   3      16.803  60.684  30.416  0.00  0.00    -0.004 A 
ATOM     23  CE2 PHE A   3      17.481  61.860  30.744  0.00  0.00    -0.000 A 
ATOM     24  CZ  PHE A   3      17.646  62.856  29.789  0.00  0.00    -0.000 A 
ATOM     25  CE1 PHE A   3      17.138  62.672  28.504  0.00  0.00    -0.000 A 
ATOM     26  CD1 PHE A   3      16.464  61.498  28.188  0.00  0.00    -0.004 A 
ENDBRANCH  20  21
ENDBRANCH  17  20
ENDBRANCH  14  17
ENDBRANCH   1  13
BRANCH   1  27
ATOM     27  CB  VAL A   2      13.893  62.018  32.489  0.00  0.00    +0.027 C 
ATOM     28  CG2 VAL A   2      13.555  62.531  33.876  0.00  0.00    +0.002 C 
ATOM     29  CG1 VAL A   2      14.179  63.182  31.553  0.00  0.00    +0.002 C 
ENDBRANCH   1  27
TORSDOF 11
REMARK  Name = ../refined-set-2016/1fh7/1fh7_pocket.pdb
REMARK  130 active torsions:
REMARK  status: ('A' for Active; 'I' for Inactive)
REMARK    1  A    between atoms: _1  and  _3
REMARK    2  A    between atoms: _3  and  _4
REMARK    3  A    between atoms: _7  and  _9
REMARK    4  A    between atoms: _9  and  _10
REMARK    5  A    between atoms: _9  and  _12
REMARK    6  A    between atoms: _12  and  _13
REMARK    7  A    between atoms: _16  and  _18
REMARK    8  A    between atoms: _18  and  _19
REMARK    9  A    between atoms: _22  and  _24
REMARK   10  A    between atoms: _24  and  _25
REMARK   11  A    between atoms: _24  and  _27
REMARK   12  A    between atoms: _27  and  _28
REMARK   13  A    between atoms: _28  and  _29
REMARK   14  A    between atoms: _32  and  _34
REMARK   15  A    between atoms: _34  and  _35
REMARK   16  A    between atoms: _34  and  _37
REMARK   17  A    between atoms: _37  and  _38
REMARK   18  A    between atoms: _43  and  _45
REMARK   19  A    between atoms: _45  and  _46
REMARK   20  A    between atoms: _45  and  _48
REMARK   21  A    between atoms: _48  and  _49
REMARK   22  A    between atoms: _49  and  _50
REMARK   23  A    between atoms: _50  and  _51
REMARK   24  A    between atoms: _51  and  _52
REMARK   25  A    between atoms: _56  and  _58
REMARK   26  A    between atoms: _58  and  _59
REMARK   27  A    between atoms: _58  and  _61
REMARK   28  A    between atoms: _61  and  _62
REMARK   29  A    between atoms: _65  and  _67
REMARK   30  A    between atoms: _67  and  _68
REMARK   31  A    between atoms: _67  and  _70
REMARK   32  A    between atoms: _70  and  _71
REMARK   33  A    between atoms: _76  and  _78
REMARK   34  A    between atoms: _78  and  _79
REMARK   35  A    between atoms: _78  and  _81
REMARK   36  A    between atoms: _81  and  _82
REMARK   37  A    between atoms: _85  and  _87
REMARK   38  A    between atoms: _87  and  _88
REMARK   39  A    between atoms: _87  and  _90
REMARK   40  A    between atoms: _90  and  _91
REMARK   41  A    between atoms: _101  and  _103
REMARK   42  A    between atoms: _103  and  _104
REMARK   43  A    between atoms: _103  and  _106
REMARK   44  A    between atoms: _106  and  _107
REMARK   45  A    between atoms: _109  and  _111
REMARK   46  A    between atoms: _111  and  _112
REMARK   47  A    between atoms: _111  and  _114
REMARK   48  A    between atoms: _114  and  _115
REMARK   49  A    between atoms: _115  and  _116
REMARK   50  A    between atoms: _121  and  _123
REMARK   51  A    between atoms: _123  and  _124
REMARK   52  A    between atoms: _123  and  _126
REMARK   53  A    between atoms: _126  and  _127
REMARK   54  A    between atoms: _130  and  _132
REMARK   55  A    between atoms: _132  and  _133
REMARK   56  A    between atoms: _132  and  _135
REMARK   57  A    between atoms: _135  and  _136
REMARK   58  A    between atoms: _141  and  _143
REMARK   59  A    between atoms: _143  and  _144
REMARK   60  A    between atoms: _143  and  _146
REMARK   61  A    between atoms: _146  and  _147
REMARK   62  A    between atoms: _147  and  _148
REMARK   63  A    between atoms: _151  and  _153
REMARK   64  A    between atoms: _153  and  _154
REMARK   65  A    between atoms: _153  and  _156
REMARK   66  A    between atoms: _156  and  _157
REMARK   67  A    between atoms: _162  and  _164
REMARK   68  A    between atoms: _164  and  _165
REMARK   69  A    between atoms: _164  and  _167
REMARK   70  A    between atoms: _167  and  _168
REMARK   71  A    between atoms: _171  and  _173
REMARK   72  A    between atoms: _173  and  _174
REMARK   73  A    between atoms: _173  and  _176
REMARK   74  A    between atoms: _176  and  _177
REMARK   75  A    between atoms: _182  and  _183
REMARK   76  A    between atoms: _185  and  _187
REMARK   77  A    between atoms: _187  and  _188
REMARK   78  A    between atoms: _187  and  _190
REMARK   79  A    between atoms: _190  and  _191
REMARK   80  A    between atoms: _191  and  _192
REMARK   81  A    between atoms: _197  and  _199
REMARK   82  A    between atoms: _199  and  _200
REMARK   83  A    between atoms: _199  and  _202
REMARK   84  A    between atoms: _202  and  _203
REMARK   85  A    between atoms: _208  and  _210
REMARK   86  A    between atoms: _210  and  _211
REMARK   87  A    between atoms: _210  and  _213
REMARK   88  A    between atoms: _213  and  _214
REMARK   89  A    between atoms: _217  and  _219
REMARK   90  A    between atoms: _219  and  _220
REMARK   91  A    between atoms: _219  and  _222
REMARK   92  A    between atoms: _222  and  _223
REMARK   93  A    between atoms: _223  and  _224
REMARK   94  A    between atoms: _227  and  _229
REMARK   95  A    between atoms: _229  and  _230
REMARK   96  A    between atoms: _229  and  _232
REMARK   97  A    between atoms: _232  and  _233
REMARK   98  A    between atoms: _236  and  _238
REMARK   99  A    between atoms: _238  and  _239
REMARK  100  A    between atoms: _238  and  _241
REMARK  101  A    between atoms: _241  and  _242
REMARK  102  A    between atoms: _252  and  _254
REMARK  103  A    between atoms: _254  and  _255
REMARK  104  A    between atoms: _257  and  _259
REMARK  105  A    between atoms: _259  and  _260
REMARK  106  A    between atoms: _259  and  _262
REMARK  107  A    between atoms: _262  and  _263
REMARK  108  A    between atoms: _268  and  _269
REMARK  109  A    between atoms: _271  and  _273
REMARK  110  A    between atoms: _273  and  _274
REMARK  111  A    between atoms: _273  and  _276
REMARK  112  A    between atoms: _276  and  _277
REMARK  113  A    between atoms: _279  and  _281
REMARK  114  A    between atoms: _281  and  _282
REMARK  115  A    between atoms: _281  and  _284
REMARK  116  A    between atoms: _284  and  _285
REMARK  117  A    between atoms: _295  and  _297
REMARK  118  A    between atoms: _297  and  _298
REMARK  119  A    between atoms: _297  and  _300
REMARK  120  A    between atoms: _303  and  _305
REMARK  121  A    between atoms: _305  and  _306
REMARK  122  A    between atoms: _305  and  _308
REMARK  123  A    between atoms: _308  and  _309
REMARK  124  A    between atoms: _312  and  _314
REMARK  125  A    between atoms: _314  and  _315
REMARK  126  A    between atoms: _314  and  _317
REMARK  127  A    between atoms: _320  and  _322
REMARK  128  A    between atoms: _322  and  _323
REMARK  129  A    between atoms: _322  and  _325
REMARK  130  A    between atoms: _325  and  _326
REMARK                            x       y       z     vdW  Elec       q    Type
REMARK                         _______ _______ _______ _____ _____    ______ ____
ROOT
ATOM      1  O   HOH     1      25.523  68.930  41.040  0.00  0.00    +0.000 OA
ENDROOT
TORSDOF 0
REMARK  Name = ../refined-set-2016/1fh7/1fh7_pocket.pdb
REMARK  130 active torsions:
REMARK  status: ('A' for Active; 'I' for Inactive)
REMARK    1  A    between atoms: _1  and  _3
REMARK    2  A    between atoms: _3  and  _4
REMARK    3  A    between atoms: _7  and  _9
REMARK    4  A    between atoms: _9  and  _10
REMARK    5  A    between atoms: _9  and  _12
REMARK    6  A    between atoms: _12  and  _13
REMARK    7  A    between atoms: _16  and  _18
REMARK    8  A    between atoms: _18  and  _19
REMARK    9  A    between atoms: _22  and  _24
REMARK   10  A    between atoms: _24  and  _25
REMARK   11  A    between atoms: _24  and  _27
REMARK   12  A    between atoms: _27  and  _28
REMARK   13  A    between atoms: _28  and  _29
REMARK   14  A    between atoms: _32  and  _34
REMARK   15  A    between atoms: _34  and  _35
REMARK   16  A    between atoms: _34  and  _37
REMARK   17  A    between atoms: _37  and  _38
REMARK   18  A    between atoms: _43  and  _45
REMARK   19  A    between atoms: _45  and  _46
REMARK   20  A    between atoms: _45  and  _48
REMARK   21  A    between atoms: _48  and  _49
REMARK   22  A    between atoms: _49  and  _50
REMARK   23  A    between atoms: _50  and  _51
REMARK   24  A    between atoms: _51  and  _52
REMARK   25  A    between atoms: _56  and  _58
REMARK   26  A    between atoms: _58  and  _59
REMARK   27  A    between atoms: _58  and  _61
REMARK   28  A    between atoms: _61  and  _62
REMARK   29  A    between atoms: _65  and  _67
REMARK   30  A    between atoms: _67  and  _68
REMARK   31  A    between atoms: _67  and  _70
REMARK   32  A    between atoms: _70  and  _71
REMARK   33  A    between atoms: _76  and  _78
REMARK   34  A    between atoms: _78  and  _79
REMARK   35  A    between atoms: _78  and  _81
REMARK   36  A    between atoms: _81  and  _82
REMARK   37  A    between atoms: _85  and  _87
REMARK   38  A    between atoms: _87  and  _88
REMARK   39  A    between atoms: _87  and  _90
REMARK   40  A    between atoms: _90  and  _91
REMARK   41  A    between atoms: _101  and  _103
REMARK   42  A    between atoms: _103  and  _104
REMARK   43  A    between atoms: _103  and  _106
REMARK   44  A    between atoms: _106  and  _107
REMARK   45  A    between atoms: _109  and  _111
REMARK   46  A    between atoms: _111  and  _112
REMARK   47  A    between atoms: _111  and  _114
REMARK   48  A    between atoms: _114  and  _115
REMARK   49  A    between atoms: _115  and  _116
REMARK   50  A    between atoms: _121  and  _123
REMARK   51  A    between atoms: _123  and  _124
REMARK   52  A    between atoms: _123  and  _126
REMARK   53  A    between atoms: _126  and  _127
REMARK   54  A    between atoms: _130  and  _132
REMARK   55  A    between atoms: _132  and  _133
REMARK   56  A    between atoms: _132  and  _135
REMARK   57  A    between atoms: _135  and  _136
REMARK   58  A    between atoms: _141  and  _143
REMARK   59  A    between atoms: _143  and  _144
REMARK   60  A    between atoms: _143  and  _146
REMARK   61  A    between atoms: _146  and  _147
REMARK   62  A    between atoms: _147  and  _148
REMARK   63  A    between atoms: _151  and  _153
REMARK   64  A    between atoms: _153  and  _154
REMARK   65  A    between atoms: _153  and  _156
REMARK   66  A    between atoms: _156  and  _157
REMARK   67  A    between atoms: _162  and  _164
REMARK   68  A    between atoms: _164  and  _165
REMARK   69  A    between atoms: _164  and  _167
REMARK   70  A    between atoms: _167  and  _168
REMARK   71  A    between atoms: _171  and  _173
REMARK   72  A    between atoms: _173  and  _174
REMARK   73  A    between atoms: _173  and  _176
REMARK   74  A    between atoms: _176  and  _177
REMARK   75  A    between atoms: _182  and  _183
REMARK   76  A    between atoms: _185  and  _187
REMARK   77  A    between atoms: _187  and  _188
REMARK   78  A    between atoms: _187  and  _190
REMARK   79  A    between atoms: _190  and  _191
REMARK   80  A    between atoms: _191  and  _192
REMARK   81  A    between atoms: _197  and  _199
REMARK   82  A    between atoms: _199  and  _200
REMARK   83  A    between atoms: _199  and  _202
REMARK   84  A    between atoms: _202  and  _203
REMARK   85  A    between atoms: _208  and  _210
REMARK   86  A    between atoms: _210  and  _211
REMARK   87  A    between atoms: _210  and  _213
REMARK   88  A    between atoms: _213  and  _214
REMARK   89  A    between atoms: _217  and  _219
REMARK   90  A    between atoms: _219  and  _220
REMARK   91  A    between atoms: _219  and  _222
REMARK   92  A    between atoms: _222  and  _223
REMARK   93  A    between atoms: _223  and  _224
REMARK   94  A    between atoms: _227  and  _229
REMARK   95  A    between atoms: _229  and  _230
REMARK   96  A    between atoms: _229  and  _232
REMARK   97  A    between atoms: _232  and  _233
REMARK   98  A    between atoms: _236  and  _238
REMARK   99  A    between atoms: _238  and  _239
REMARK  100  A    between atoms: _238  and  _241
REMARK  101  A    between atoms: _241  and  _242
REMARK  102  A    between atoms: _252  and  _254
REMARK  103  A    between atoms: _254  and  _255
REMARK  104  A    between atoms: _257  and  _259
REMARK  105  A    between atoms: _259  and  _260
REMARK  106  A    between atoms: _259  and  _262
REMARK  107  A    between atoms: _262  and  _263
REMARK  108  A    between atoms: _268  and  _269
REMARK  109  A    between atoms: _271  and  _273
REMARK  110  A    between atoms: _273  and  _274
REMARK  111  A    between atoms: _273  and  _276
REMARK  112  A    between atoms: _276  and  _277
REMARK  113  A    between atoms: _279  and  _281
REMARK  114  A    between atoms: _281  and  _282
REMARK  115  A    between atoms: _281  and  _284
REMARK  116  A    between atoms: _284  and  _285
REMARK  117  A    between atoms: _295  and  _297
REMARK  118  A    between atoms: _297  and  _298
REMARK  119  A    between atoms: _297  and  _300
REMARK  120  A    between atoms: _303  and  _305
REMARK  121  A    between atoms: _305  and  _306
REMARK  122  A    between atoms: _305  and  _308
REMARK  123  A    between atoms: _308  and  _309
REMARK  124  A    between atoms: _312  and  _314
REMARK  125  A    between atoms: _314  and  _315
REMARK  126  A    between atoms: _314  and  _317
REMARK  127  A    between atoms: _320  and  _322
REMARK  128  A    between atoms: _322  and  _323
REMARK  129  A    between atoms: _322  and  _325
REMARK  130  A    between atoms: _325  and  _326
REMARK                            x       y       z     vdW  Elec       q    Type
REMARK                         _______ _______ _______ _____ _____    ______ ____
ROOT
ATOM      1  O   HOH     1      19.487  69.369  45.625  0.00  0.00    +0.000 OA
ENDROOT
TORSDOF 0
REMARK  Name = ../refined-set-2016/1fh7/1fh7_pocket.pdb
REMARK  130 active torsions:
REMARK  status: ('A' for Active; 'I' for Inactive)
REMARK    1  A    between atoms: _1  and  _3
REMARK    2  A    between atoms: _3  and  _4
REMARK    3  A    between atoms: _7  and  _9
REMARK    4  A    between atoms: _9  and  _10
REMARK    5  A    between atoms: _9  and  _12
REMARK    6  A    between atoms: _12  and  _13
REMARK    7  A    between atoms: _16  and  _18
REMARK    8  A    between atoms: _18  and  _19
REMARK    9  A    between atoms: _22  and  _24
REMARK   10  A    between atoms: _24  and  _25
REMARK   11  A    between atoms: _24  and  _27
REMARK   12  A    between atoms: _27  and  _28
REMARK   13  A    between atoms: _28  and  _29
REMARK   14  A    between atoms: _32  and  _34
REMARK   15  A    between atoms: _34  and  _35
REMARK   16  A    between atoms: _34  and  _37
REMARK   17  A    between atoms: _37  and  _38
REMARK   18  A    between atoms: _43  and  _45
REMARK   19  A    between atoms: _45  and  _46
REMARK   20  A    between atoms: _45  and  _48
REMARK   21  A    between atoms: _48  and  _49
REMARK   22  A    between atoms: _49  and  _50
REMARK   23  A    between atoms: _50  and  _51
REMARK   24  A    between atoms: _51  and  _52
REMARK   25  A    between atoms: _56  and  _58
REMARK   26  A    between atoms: _58  and  _59
REMARK   27  A    between atoms: _58  and  _61
REMARK   28  A    between atoms: _61  and  _62
REMARK   29  A    between atoms: _65  and  _67
REMARK   30  A    between atoms: _67  and  _68
REMARK   31  A    between atoms: _67  and  _70
REMARK   32  A    between atoms: _70  and  _71
REMARK   33  A    between atoms: _76  and  _78
REMARK   34  A    between atoms: _78  and  _79
REMARK   35  A    between atoms: _78  and  _81
REMARK   36  A    between atoms: _81  and  _82
REMARK   37  A    between atoms: _85  and  _87
REMARK   38  A    between atoms: _87  and  _88
REMARK   39  A    between atoms: _87  and  _90
REMARK   40  A    between atoms: _90  and  _91
REMARK   41  A    between atoms: _101  and  _103
REMARK   42  A    between atoms: _103  and  _104
REMARK   43  A    between atoms: _103  and  _106
REMARK   44  A    between atoms: _106  and  _107
REMARK   45  A    between atoms: _109  and  _111
REMARK   46  A    between atoms: _111  and  _112
REMARK   47  A    between atoms: _111  and  _114
REMARK   48  A    between atoms: _114  and  _115
REMARK   49  A    between atoms: _115  and  _116
REMARK   50  A    between atoms: _121  and  _123
REMARK   51  A    between atoms: _123  and  _124
REMARK   52  A    between atoms: _123  and  _126
REMARK   53  A    between atoms: _126  and  _127
REMARK   54  A    between atoms: _130  and  _132
REMARK   55  A    between atoms: _132  and  _133
REMARK   56  A    between atoms: _132  and  _135
REMARK   57  A    between atoms: _135  and  _136
REMARK   58  A    between atoms: _141  and  _143
REMARK   59  A    between atoms: _143  and  _144
REMARK   60  A    between atoms: _143  and  _146
REMARK   61  A    between atoms: _146  and  _147
REMARK   62  A    between atoms: _147  and  _148
REMARK   63  A    between atoms: _151  and  _153
REMARK   64  A    between atoms: _153  and  _154
REMARK   65  A    between atoms: _153  and  _156
REMARK   66  A    between atoms: _156  and  _157
REMARK   67  A    between atoms: _162  and  _164
REMARK   68  A    between atoms: _164  and  _165
REMARK   69  A    between atoms: _164  and  _167
REMARK   70  A    between atoms: _167  and  _168
REMARK   71  A    between atoms: _171  and  _173
REMARK   72  A    between atoms: _173  and  _174
REMARK   73  A    between atoms: _173  and  _176
REMARK   74  A    between atoms: _176  and  _177
REMARK   75  A    between atoms: _182  and  _183
REMARK   76  A    between atoms: _185  and  _187
REMARK   77  A    between atoms: _187  and  _188
REMARK   78  A    between atoms: _187  and  _190
REMARK   79  A    between atoms: _190  and  _191
REMARK   80  A    between atoms: _191  and  _192
REMARK   81  A    between atoms: _197  and  _199
REMARK   82  A    between atoms: _199  and  _200
REMARK   83  A    between atoms: _199  and  _202
REMARK   84  A    between atoms: _202  and  _203
REMARK   85  A    between atoms: _208  and  _210
REMARK   86  A    between atoms: _210  and  _211
REMARK   87  A    between atoms: _210  and  _213
REMARK   88  A    between atoms: _213  and  _214
REMARK   89  A    between atoms: _217  and  _219
REMARK   90  A    between atoms: _219  and  _220
REMARK   91  A    between atoms: _219  and  _222
REMARK   92  A    between atoms: _222  and  _223
REMARK   93  A    between atoms: _223  and  _224
REMARK   94  A    between atoms: _227  and  _229
REMARK   95  A    between atoms: _229  and  _230
REMARK   96  A    between atoms: _229  and  _232
REMARK   97  A    between atoms: _232  and  _233
REMARK   98  A    between atoms: _236  and  _238
REMARK   99  A    between atoms: _238  and  _239
REMARK  100  A    between atoms: _238  and  _241
REMARK  101  A    between atoms: _241  and  _242
REMARK  102  A    between atoms: _252  and  _254
REMARK  103  A    between atoms: _254  and  _255
REMARK  104  A    between atoms: _257  and  _259
REMARK  105  A    between atoms: _259  and  _260
REMARK  106  A    between atoms: _259  and  _262
REMARK  107  A    between atoms: _262  and  _263
REMARK  108  A    between atoms: _268  and  _269
REMARK  109  A    between atoms: _271  and  _273
REMARK  110  A    between atoms: _273  and  _274
REMARK  111  A    between atoms: _273  and  _276
REMARK  112  A    between atoms: _276  and  _277
REMARK  113  A    between atoms: _279  and  _281
REMARK  114  A    between atoms: _281  and  _282
REMARK  115  A    between atoms: _281  and  _284
REMARK  116  A    between atoms: _284  and  _285
REMARK  117  A    between atoms: _295  and  _297
REMARK  118  A    between atoms: _297  and  _298
REMARK  119  A    between atoms: _297  and  _300
REMARK  120  A    between atoms: _303  and  _305
REMARK  121  A    between atoms: _305  and  _306
REMARK  122  A    between atoms: _305  and  _308
REMARK  123  A    between atoms: _308  and  _309
REMARK  124  A    between atoms: _312  and  _314
REMARK  125  A    between atoms: _314  and  _315
REMARK  126  A    between atoms: _314  and  _317
REMARK  127  A    between atoms: _320  and  _322
REMARK  128  A    between atoms: _322  and  _323
REMARK  129  A    between atoms: _322  and  _325
REMARK  130  A    between atoms: _325  and  _326
REMARK                            x       y       z     vdW  Elec       q    Type
REMARK                         _______ _______ _______ _____ _____    ______ ____
ROOT
ATOM      1  O   HOH     1      18.124  64.864  47.891  0.00  0.00    +0.000 OA
ENDROOT
TORSDOF 0
REMARK  Name = ../refined-set-2016/1fh7/1fh7_pocket.pdb
REMARK  130 active torsions:
REMARK  status: ('A' for Active; 'I' for Inactive)
REMARK    1  A    between atoms: _1  and  _3
REMARK    2  A    between atoms: _3  and  _4
REMARK    3  A    between atoms: _7  and  _9
REMARK    4  A    between atoms: _9  and  _10
REMARK    5  A    between atoms: _9  and  _12
REMARK    6  A    between atoms: _12  and  _13
REMARK    7  A    between atoms: _16  and  _18
REMARK    8  A    between atoms: _18  and  _19
REMARK    9  A    between atoms: _22  and  _24
REMARK   10  A    between atoms: _24  and  _25
REMARK   11  A    between atoms: _24  and  _27
REMARK   12  A    between atoms: _27  and  _28
REMARK   13  A    between atoms: _28  and  _29
REMARK   14  A    between atoms: _32  and  _34
REMARK   15  A    between atoms: _34  and  _35
REMARK   16  A    between atoms: _34  and  _37
REMARK   17  A    between atoms: _37  and  _38
REMARK   18  A    between atoms: _43  and  _45
REMARK   19  A    between atoms: _45  and  _46
REMARK   20  A    between atoms: _45  and  _48
REMARK   21  A    between atoms: _48  and  _49
REMARK   22  A    between atoms: _49  and  _50
REMARK   23  A    between atoms: _50  and  _51
REMARK   24  A    between atoms: _51  and  _52
REMARK   25  A    between atoms: _56  and  _58
REMARK   26  A    between atoms: _58  and  _59
REMARK   27  A    between atoms: _58  and  _61
REMARK   28  A    between atoms: _61  and  _62
REMARK   29  A    between atoms: _65  and  _67
REMARK   30  A    between atoms: _67  and  _68
REMARK   31  A    between atoms: _67  and  _70
REMARK   32  A    between atoms: _70  and  _71
REMARK   33  A    between atoms: _76  and  _78
REMARK   34  A    between atoms: _78  and  _79
REMARK   35  A    between atoms: _78  and  _81
REMARK   36  A    between atoms: _81  and  _82
REMARK   37  A    between atoms: _85  and  _87
REMARK   38  A    between atoms: _87  and  _88
REMARK   39  A    between atoms: _87  and  _90
REMARK   40  A    between atoms: _90  and  _91
REMARK   41  A    between atoms: _101  and  _103
REMARK   42  A    between atoms: _103  and  _104
REMARK   43  A    between atoms: _103  and  _106
REMARK   44  A    between atoms: _106  and  _107
REMARK   45  A    between atoms: _109  and  _111
REMARK   46  A    between atoms: _111  and  _112
REMARK   47  A    between atoms: _111  and  _114
REMARK   48  A    between atoms: _114  and  _115
REMARK   49  A    between atoms: _115  and  _116
REMARK   50  A    between atoms: _121  and  _123
REMARK   51  A    between atoms: _123  and  _124
REMARK   52  A    between atoms: _123  and  _126
REMARK   53  A    between atoms: _126  and  _127
REMARK   54  A    between atoms: _130  and  _132
REMARK   55  A    between atoms: _132  and  _133
REMARK   56  A    between atoms: _132  and  _135
REMARK   57  A    between atoms: _135  and  _136
REMARK   58  A    between atoms: _141  and  _143
REMARK   59  A    between atoms: _143  and  _144
REMARK   60  A    between atoms: _143  and  _146
REMARK   61  A    between atoms: _146  and  _147
REMARK   62  A    between atoms: _147  and  _148
REMARK   63  A    between atoms: _151  and  _153
REMARK   64  A    between atoms: _153  and  _154
REMARK   65  A    between atoms: _153  and  _156
REMARK   66  A    between atoms: _156  and  _157
REMARK   67  A    between atoms: _162  and  _164
REMARK   68  A    between atoms: _164  and  _165
REMARK   69  A    between atoms: _164  and  _167
REMARK   70  A    between atoms: _167  and  _168
REMARK   71  A    between atoms: _171  and  _173
REMARK   72  A    between atoms: _173  and  _174
REMARK   73  A    between atoms: _173  and  _176
REMARK   74  A    between atoms: _176  and  _177
REMARK   75  A    between atoms: _182  and  _183
REMARK   76  A    between atoms: _185  and  _187
REMARK   77  A    between atoms: _187  and  _188
REMARK   78  A    between atoms: _187  and  _190
REMARK   79  A    between atoms: _190  and  _191
REMARK   80  A    between atoms: _191  and  _192
REMARK   81  A    between atoms: _197  and  _199
REMARK   82  A    between atoms: _199  and  _200
REMARK   83  A    between atoms: _199  and  _202
REMARK   84  A    between atoms: _202  and  _203
REMARK   85  A    between atoms: _208  and  _210
REMARK   86  A    between atoms: _210  and  _211
REMARK   87  A    between atoms: _210  and  _213
REMARK   88  A    between atoms: _213  and  _214
REMARK   89  A    between atoms: _217  and  _219
REMARK   90  A    between atoms: _219  and  _220
REMARK   91  A    between atoms: _219  and  _222
REMARK   92  A    between atoms: _222  and  _223
REMARK   93  A    between atoms: _223  and  _224
REMARK   94  A    between atoms: _227  and  _229
REMARK   95  A    between atoms: _229  and  _230
REMARK   96  A    between atoms: _229  and  _232
REMARK   97  A    between atoms: _232  and  _233
REMARK   98  A    between atoms: _236  and  _238
REMARK   99  A    between atoms: _238  and  _239
REMARK  100  A    between atoms: _238  and  _241
REMARK  101  A    between atoms: _241  and  _242
REMARK  102  A    between atoms: _252  and  _254
REMARK  103  A    between atoms: _254  and  _255
REMARK  104  A    between atoms: _257  and  _259
REMARK  105  A    between atoms: _259  and  _260
REMARK  106  A    between atoms: _259  and  _262
REMARK  107  A    between atoms: _262  and  _263
REMARK  108  A    between atoms: _268  and  _269
REMARK  109  A    between atoms: _271  and  _273
REMARK  110  A    between atoms: _273  and  _274
REMARK  111  A    between atoms: _273  and  _276
REMARK  112  A    between atoms: _276  and  _277
REMARK  113  A    between atoms: _279  and  _281
REMARK  114  A    between atoms: _281  and  _282
REMARK  115  A    between atoms: _281  and  _284
REMARK  116  A    between atoms: _284  and  _285
REMARK  117  A    between atoms: _295  and  _297
REMARK  118  A    between atoms: _297  and  _298
REMARK  119  A    between atoms: _297  and  _300
REMARK  120  A    between atoms: _303  and  _305
REMARK  121  A    between atoms: _305  and  _306
REMARK  122  A    between atoms: _305  and  _308
REMARK  123  A    between atoms: _308  and  _309
REMARK  124  A    between atoms: _312  and  _314
REMARK  125  A    between atoms: _314  and  _315
REMARK  126  A    between atoms: _314  and  _317
REMARK  127  A    between atoms: _320  and  _322
REMARK  128  A    between atoms: _322  and  _323
REMARK  129  A    between atoms: _322  and  _325
REMARK  130  A    between atoms: _325  and  _326
REMARK                            x       y       z     vdW  Elec       q    Type
REMARK                         _______ _______ _______ _____ _____    ______ ____
ROOT
ATOM      1  O   HOH     1      18.031  58.628  44.237  0.00  0.00    +0.000 OA
ENDROOT
TORSDOF 0
REMARK  Name = ../refined-set-2016/1fh7/1fh7_pocket.pdb
REMARK  130 active torsions:
REMARK  status: ('A' for Active; 'I' for Inactive)
REMARK    1  A    between atoms: _1  and  _3
REMARK    2  A    between atoms: _3  and  _4
REMARK    3  A    between atoms: _7  and  _9
REMARK    4  A    between atoms: _9  and  _10
REMARK    5  A    between atoms: _9  and  _12
REMARK    6  A    between atoms: _12  and  _13
REMARK    7  A    between atoms: _16  and  _18
REMARK    8  A    between atoms: _18  and  _19
REMARK    9  A    between atoms: _22  and  _24
REMARK   10  A    between atoms: _24  and  _25
REMARK   11  A    between atoms: _24  and  _27
REMARK   12  A    between atoms: _27  and  _28
REMARK   13  A    between atoms: _28  and  _29
REMARK   14  A    between atoms: _32  and  _34
REMARK   15  A    between atoms: _34  and  _35
REMARK   16  A    between atoms: _34  and  _37
REMARK   17  A    between atoms: _37  and  _38
REMARK   18  A    between atoms: _43  and  _45
REMARK   19  A    between atoms: _45  and  _46
REMARK   20  A    between atoms: _45  and  _48
REMARK   21  A    between atoms: _48  and  _49
REMARK   22  A    between atoms: _49  and  _50
REMARK   23  A    between atoms: _50  and  _51
REMARK   24  A    between atoms: _51  and  _52
REMARK   25  A    between atoms: _56  and  _58
REMARK   26  A    between atoms: _58  and  _59
REMARK   27  A    between atoms: _58  and  _61
REMARK   28  A    between atoms: _61  and  _62
REMARK   29  A    between atoms: _65  and  _67
REMARK   30  A    between atoms: _67  and  _68
REMARK   31  A    between atoms: _67  and  _70
REMARK   32  A    between atoms: _70  and  _71
REMARK   33  A    between atoms: _76  and  _78
REMARK   34  A    between atoms: _78  and  _79
REMARK   35  A    between atoms: _78  and  _81
REMARK   36  A    between atoms: _81  and  _82
REMARK   37  A    between atoms: _85  and  _87
REMARK   38  A    between atoms: _87  and  _88
REMARK   39  A    between atoms: _87  and  _90
REMARK   40  A    between atoms: _90  and  _91
REMARK   41  A    between atoms: _101  and  _103
REMARK   42  A    between atoms: _103  and  _104
REMARK   43  A    between atoms: _103  and  _106
REMARK   44  A    between atoms: _106  and  _107
REMARK   45  A    between atoms: _109  and  _111
REMARK   46  A    between atoms: _111  and  _112
REMARK   47  A    between atoms: _111  and  _114
REMARK   48  A    between atoms: _114  and  _115
REMARK   49  A    between atoms: _115  and  _116
REMARK   50  A    between atoms: _121  and  _123
REMARK   51  A    between atoms: _123  and  _124
REMARK   52  A    between atoms: _123  and  _126
REMARK   53  A    between atoms: _126  and  _127
REMARK   54  A    between atoms: _130  and  _132
REMARK   55  A    between atoms: _132  and  _133
REMARK   56  A    between atoms: _132  and  _135
REMARK   57  A    between atoms: _135  and  _136
REMARK   58  A    between atoms: _141  and  _143
REMARK   59  A    between atoms: _143  and  _144
REMARK   60  A    between atoms: _143  and  _146
REMARK   61  A    between atoms: _146  and  _147
REMARK   62  A    between atoms: _147  and  _148
REMARK   63  A    between atoms: _151  and  _153
REMARK   64  A    between atoms: _153  and  _154
REMARK   65  A    between atoms: _153  and  _156
REMARK   66  A    between atoms: _156  and  _157
REMARK   67  A    between atoms: _162  and  _164
REMARK   68  A    between atoms: _164  and  _165
REMARK   69  A    between atoms: _164  and  _167
REMARK   70  A    between atoms: _167  and  _168
REMARK   71  A    between atoms: _171  and  _173
REMARK   72  A    between atoms: _173  and  _174
REMARK   73  A    between atoms: _173  and  _176
REMARK   74  A    between atoms: _176  and  _177
REMARK   75  A    between atoms: _182  and  _183
REMARK   76  A    between atoms: _185  and  _187
REMARK   77  A    between atoms: _187  and  _188
REMARK   78  A    between atoms: _187  and  _190
REMARK   79  A    between atoms: _190  and  _191
REMARK   80  A    between atoms: _191  and  _192
REMARK   81  A    between atoms: _197  and  _199
REMARK   82  A    between atoms: _199  and  _200
REMARK   83  A    between atoms: _199  and  _202
REMARK   84  A    between atoms: _202  and  _203
REMARK   85  A    between atoms: _208  and  _210
REMARK   86  A    between atoms: _210  and  _211
REMARK   87  A    between atoms: _210  and  _213
REMARK   88  A    between atoms: _213  and  _214
REMARK   89  A    between atoms: _217  and  _219
REMARK   90  A    between atoms: _219  and  _220
REMARK   91  A    between atoms: _219  and  _222
REMARK   92  A    between atoms: _222  and  _223
REMARK   93  A    between atoms: _223  and  _224
REMARK   94  A    between atoms: _227  and  _229
REMARK   95  A    between atoms: _229  and  _230
REMARK   96  A    between atoms: _229  and  _232
REMARK   97  A    between atoms: _232  and  _233
REMARK   98  A    between atoms: _236  and  _238
REMARK   99  A    between atoms: _238  and  _239
REMARK  100  A    between atoms: _238  and  _241
REMARK  101  A    between atoms: _241  and  _242
REMARK  102  A    between atoms: _252  and  _254
REMARK  103  A    between atoms: _254  and  _255
REMARK  104  A    between atoms: _257  and  _259
REMARK  105  A    between atoms: _259  and  _260
REMARK  106  A    between atoms: _259  and  _262
REMARK  107  A    between atoms: _262  and  _263
REMARK  108  A    between atoms: _268  and  _269
REMARK  109  A    between atoms: _271  and  _273
REMARK  110  A    between atoms: _273  and  _274
REMARK  111  A    between atoms: _273  and  _276
REMARK  112  A    between atoms: _276  and  _277
REMARK  113  A    between atoms: _279  and  _281
REMARK  114  A    between atoms: _281  and  _282
REMARK  115  A    between atoms: _281  and  _284
REMARK  116  A    between atoms: _284  and  _285
REMARK  117  A    between atoms: _295  and  _297
REMARK  118  A    between atoms: _297  and  _298
REMARK  119  A    between atoms: _297  and  _300
REMARK  120  A    between atoms: _303  and  _305
REMARK  121  A    between atoms: _305  and  _306
REMARK  122  A    between atoms: _305  and  _308
REMARK  123  A    between atoms: _308  and  _309
REMARK  124  A    between atoms: _312  and  _314
REMARK  125  A    between atoms: _314  and  _315
REMARK  126  A    between atoms: _314  and  _317
REMARK  127  A    between atoms: _320  and  _322
REMARK  128  A    between atoms: _322  and  _323
REMARK  129  A    between atoms: _322  and  _325
REMARK  130  A    between atoms: _325  and  _326
REMARK                            x       y       z     vdW  Elec       q    Type
REMARK                         _______ _______ _______ _____ _____    ______ ____
ROOT
ATOM      1  O   HOH     1      19.277  59.688  39.835  0.00  0.00    +0.000 OA
ENDROOT
TORSDOF 0
REMARK  Name = ../refined-set-2016/1fh7/1fh7_pocket.pdb
REMARK  130 active torsions:
REMARK  status: ('A' for Active; 'I' for Inactive)
REMARK    1  A    between atoms: _1  and  _3
REMARK    2  A    between atoms: _3  and  _4
REMARK    3  A    between atoms: _7  and  _9
REMARK    4  A    between atoms: _9  and  _10
REMARK    5  A    between atoms: _9  and  _12
REMARK    6  A    between atoms: _12  and  _13
REMARK    7  A    between atoms: _16  and  _18
REMARK    8  A    between atoms: _18  and  _19
REMARK    9  A    between atoms: _22  and  _24
REMARK   10  A    between atoms: _24  and  _25
REMARK   11  A    between atoms: _24  and  _27
REMARK   12  A    between atoms: _27  and  _28
REMARK   13  A    between atoms: _28  and  _29
REMARK   14  A    between atoms: _32  and  _34
REMARK   15  A    between atoms: _34  and  _35
REMARK   16  A    between atoms: _34  and  _37
REMARK   17  A    between atoms: _37  and  _38
REMARK   18  A    between atoms: _43  and  _45
REMARK   19  A    between atoms: _45  and  _46
REMARK   20  A    between atoms: _45  and  _48
REMARK   21  A    between atoms: _48  and  _49
REMARK   22  A    between atoms: _49  and  _50
REMARK   23  A    between atoms: _50  and  _51
REMARK   24  A    between atoms: _51  and  _52
REMARK   25  A    between atoms: _56  and  _58
REMARK   26  A    between atoms: _58  and  _59
REMARK   27  A    between atoms: _58  and  _61
REMARK   28  A    between atoms: _61  and  _62
REMARK   29  A    between atoms: _65  and  _67
REMARK   30  A    between atoms: _67  and  _68
REMARK   31  A    between atoms: _67  and  _70
REMARK   32  A    between atoms: _70  and  _71
REMARK   33  A    between atoms: _76  and  _78
REMARK   34  A    between atoms: _78  and  _79
REMARK   35  A    between atoms: _78  and  _81
REMARK   36  A    between atoms: _81  and  _82
REMARK   37  A    between atoms: _85  and  _87
REMARK   38  A    between atoms: _87  and  _88
REMARK   39  A    between atoms: _87  and  _90
REMARK   40  A    between atoms: _90  and  _91
REMARK   41  A    between atoms: _101  and  _103
REMARK   42  A    between atoms: _103  and  _104
REMARK   43  A    between atoms: _103  and  _106
REMARK   44  A    between atoms: _106  and  _107
REMARK   45  A    between atoms: _109  and  _111
REMARK   46  A    between atoms: _111  and  _112
REMARK   47  A    between atoms: _111  and  _114
REMARK   48  A    between atoms: _114  and  _115
REMARK   49  A    between atoms: _115  and  _116
REMARK   50  A    between atoms: _121  and  _123
REMARK   51  A    between atoms: _123  and  _124
REMARK   52  A    between atoms: _123  and  _126
REMARK   53  A    between atoms: _126  and  _127
REMARK   54  A    between atoms: _130  and  _132
REMARK   55  A    between atoms: _132  and  _133
REMARK   56  A    between atoms: _132  and  _135
REMARK   57  A    between atoms: _135  and  _136
REMARK   58  A    between atoms: _141  and  _143
REMARK   59  A    between atoms: _143  and  _144
REMARK   60  A    between atoms: _143  and  _146
REMARK   61  A    between atoms: _146  and  _147
REMARK   62  A    between atoms: _147  and  _148
REMARK   63  A    between atoms: _151  and  _153
REMARK   64  A    between atoms: _153  and  _154
REMARK   65  A    between atoms: _153  and  _156
REMARK   66  A    between atoms: _156  and  _157
REMARK   67  A    between atoms: _162  and  _164
REMARK   68  A    between atoms: _164  and  _165
REMARK   69  A    between atoms: _164  and  _167
REMARK   70  A    between atoms: _167  and  _168
REMARK   71  A    between atoms: _171  and  _173
REMARK   72  A    between atoms: _173  and  _174
REMARK   73  A    between atoms: _173  and  _176
REMARK   74  A    between atoms: _176  and  _177
REMARK   75  A    between atoms: _182  and  _183
REMARK   76  A    between atoms: _185  and  _187
REMARK   77  A    between atoms: _187  and  _188
REMARK   78  A    between atoms: _187  and  _190
REMARK   79  A    between atoms: _190  and  _191
REMARK   80  A    between atoms: _191  and  _192
REMARK   81  A    between atoms: _197  and  _199
REMARK   82  A    between atoms: _199  and  _200
REMARK   83  A    between atoms: _199  and  _202
REMARK   84  A    between atoms: _202  and  _203
REMARK   85  A    between atoms: _208  and  _210
REMARK   86  A    between atoms: _210  and  _211
REMARK   87  A    between atoms: _210  and  _213
REMARK   88  A    between atoms: _213  and  _214
REMARK   89  A    between atoms: _217  and  _219
REMARK   90  A    between atoms: _219  and  _220
REMARK   91  A    between atoms: _219  and  _222
REMARK   92  A    between atoms: _222  and  _223
REMARK   93  A    between atoms: _223  and  _224
REMARK   94  A    between atoms: _227  and  _229
REMARK   95  A    between atoms: _229  and  _230
REMARK   96  A    between atoms: _229  and  _232
REMARK   97  A    between atoms: _232  and  _233
REMARK   98  A    between atoms: _236  and  _238
REMARK   99  A    between atoms: _238  and  _239
REMARK  100  A    between atoms: _238  and  _241
REMARK  101  A    between atoms: _241  and  _242
REMARK  102  A    between atoms: _252  and  _254
REMARK  103  A    between atoms: _254  and  _255
REMARK  104  A    between atoms: _257  and  _259
REMARK  105  A    between atoms: _259  and  _260
REMARK  106  A    between atoms: _259  and  _262
REMARK  107  A    between atoms: _262  and  _263
REMARK  108  A    between atoms: _268  and  _269
REMARK  109  A    between atoms: _271  and  _273
REMARK  110  A    between atoms: _273  and  _274
REMARK  111  A    between atoms: _273  and  _276
REMARK  112  A    between atoms: _276  and  _277
REMARK  113  A    between atoms: _279  and  _281
REMARK  114  A    between atoms: _281  and  _282
REMARK  115  A    between atoms: _281  and  _284
REMARK  116  A    between atoms: _284  and  _285
REMARK  117  A    between atoms: _295  and  _297
REMARK  118  A    between atoms: _297  and  _298
REMARK  119  A    between atoms: _297  and  _300
REMARK  120  A    between atoms: _303  and  _305
REMARK  121  A    between atoms: _305  and  _306
REMARK  122  A    between atoms: _305  and  _308
REMARK  123  A    between atoms: _308  and  _309
REMARK  124  A    between atoms: _312  and  _314
REMARK  125  A    between atoms: _314  and  _315
REMARK  126  A    between atoms: _314  and  _317
REMARK  127  A    between atoms: _320  and  _322
REMARK  128  A    between atoms: _322  and  _323
REMARK  129  A    between atoms: _322  and  _325
REMARK  130  A    between atoms: _325  and  _326
REMARK                            x       y       z     vdW  Elec       q    Type
REMARK                         _______ _______ _______ _____ _____    ______ ____
ROOT
ATOM      1  O   HOH     1      20.552  58.421  45.163  0.00  0.00    +0.000 OA
ENDROOT
TORSDOF 0
REMARK  Name = ../refined-set-2016/1fh7/1fh7_pocket.pdb
REMARK  130 active torsions:
REMARK  status: ('A' for Active; 'I' for Inactive)
REMARK    1  A    between atoms: _1  and  _3
REMARK    2  A    between atoms: _3  and  _4
REMARK    3  A    between atoms: _7  and  _9
REMARK    4  A    between atoms: _9  and  _10
REMARK    5  A    between atoms: _9  and  _12
REMARK    6  A    between atoms: _12  and  _13
REMARK    7  A    between atoms: _16  and  _18
REMARK    8  A    between atoms: _18  and  _19
REMARK    9  A    between atoms: _22  and  _24
REMARK   10  A    between atoms: _24  and  _25
REMARK   11  A    between atoms: _24  and  _27
REMARK   12  A    between atoms: _27  and  _28
REMARK   13  A    between atoms: _28  and  _29
REMARK   14  A    between atoms: _32  and  _34
REMARK   15  A    between atoms: _34  and  _35
REMARK   16  A    between atoms: _34  and  _37
REMARK   17  A    between atoms: _37  and  _38
REMARK   18  A    between atoms: _43  and  _45
REMARK   19  A    between atoms: _45  and  _46
REMARK   20  A    between atoms: _45  and  _48
REMARK   21  A    between atoms: _48  and  _49
REMARK   22  A    between atoms: _49  and  _50
REMARK   23  A    between atoms: _50  and  _51
REMARK   24  A    between atoms: _51  and  _52
REMARK   25  A    between atoms: _56  and  _58
REMARK   26  A    between atoms: _58  and  _59
REMARK   27  A    between atoms: _58  and  _61
REMARK   28  A    between atoms: _61  and  _62
REMARK   29  A    between atoms: _65  and  _67
REMARK   30  A    between atoms: _67  and  _68
REMARK   31  A    between atoms: _67  and  _70
REMARK   32  A    between atoms: _70  and  _71
REMARK   33  A    between atoms: _76  and  _78
REMARK   34  A    between atoms: _78  and  _79
REMARK   35  A    between atoms: _78  and  _81
REMARK   36  A    between atoms: _81  and  _82
REMARK   37  A    between atoms: _85  and  _87
REMARK   38  A    between atoms: _87  and  _88
REMARK   39  A    between atoms: _87  and  _90
REMARK   40  A    between atoms: _90  and  _91
REMARK   41  A    between atoms: _101  and  _103
REMARK   42  A    between atoms: _103  and  _104
REMARK   43  A    between atoms: _103  and  _106
REMARK   44  A    between atoms: _106  and  _107
REMARK   45  A    between atoms: _109  and  _111
REMARK   46  A    between atoms: _111  and  _112
REMARK   47  A    between atoms: _111  and  _114
REMARK   48  A    between atoms: _114  and  _115
REMARK   49  A    between atoms: _115  and  _116
REMARK   50  A    between atoms: _121  and  _123
REMARK   51  A    between atoms: _123  and  _124
REMARK   52  A    between atoms: _123  and  _126
REMARK   53  A    between atoms: _126  and  _127
REMARK   54  A    between atoms: _130  and  _132
REMARK   55  A    between atoms: _132  and  _133
REMARK   56  A    between atoms: _132  and  _135
REMARK   57  A    between atoms: _135  and  _136
REMARK   58  A    between atoms: _141  and  _143
REMARK   59  A    between atoms: _143  and  _144
REMARK   60  A    between atoms: _143  and  _146
REMARK   61  A    between atoms: _146  and  _147
REMARK   62  A    between atoms: _147  and  _148
REMARK   63  A    between atoms: _151  and  _153
REMARK   64  A    between atoms: _153  and  _154
REMARK   65  A    between atoms: _153  and  _156
REMARK   66  A    between atoms: _156  and  _157
REMARK   67  A    between atoms: _162  and  _164
REMARK   68  A    between atoms: _164  and  _165
REMARK   69  A    between atoms: _164  and  _167
REMARK   70  A    between atoms: _167  and  _168
REMARK   71  A    between atoms: _171  and  _173
REMARK   72  A    between atoms: _173  and  _174
REMARK   73  A    between atoms: _173  and  _176
REMARK   74  A    between atoms: _176  and  _177
REMARK   75  A    between atoms: _182  and  _183
REMARK   76  A    between atoms: _185  and  _187
REMARK   77  A    between atoms: _187  and  _188
REMARK   78  A    between atoms: _187  and  _190
REMARK   79  A    between atoms: _190  and  _191
REMARK   80  A    between atoms: _191  and  _192
REMARK   81  A    between atoms: _197  and  _199
REMARK   82  A    between atoms: _199  and  _200
REMARK   83  A    between atoms: _199  and  _202
REMARK   84  A    between atoms: _202  and  _203
REMARK   85  A    between atoms: _208  and  _210
REMARK   86  A    between atoms: _210  and  _211
REMARK   87  A    between atoms: _210  and  _213
REMARK   88  A    between atoms: _213  and  _214
REMARK   89  A    between atoms: _217  and  _219
REMARK   90  A    between atoms: _219  and  _220
REMARK   91  A    between atoms: _219  and  _222
REMARK   92  A    between atoms: _222  and  _223
REMARK   93  A    between atoms: _223  and  _224
REMARK   94  A    between atoms: _227  and  _229
REMARK   95  A    between atoms: _229  and  _230
REMARK   96  A    between atoms: _229  and  _232
REMARK   97  A    between atoms: _232  and  _233
REMARK   98  A    between atoms: _236  and  _238
REMARK   99  A    between atoms: _238  and  _239
REMARK  100  A    between atoms: _238  and  _241
REMARK  101  A    between atoms: _241  and  _242
REMARK  102  A    between atoms: _252  and  _254
REMARK  103  A    between atoms: _254  and  _255
REMARK  104  A    between atoms: _257  and  _259
REMARK  105  A    between atoms: _259  and  _260
REMARK  106  A    between atoms: _259  and  _262
REMARK  107  A    between atoms: _262  and  _263
REMARK  108  A    between atoms: _268  and  _269
REMARK  109  A    between atoms: _271  and  _273
REMARK  110  A    between atoms: _273  and  _274
REMARK  111  A    between atoms: _273  and  _276
REMARK  112  A    between atoms: _276  and  _277
REMARK  113  A    between atoms: _279  and  _281
REMARK  114  A    between atoms: _281  and  _282
REMARK  115  A    between atoms: _281  and  _284
REMARK  116  A    between atoms: _284  and  _285
REMARK  117  A    between atoms: _295  and  _297
REMARK  118  A    between atoms: _297  and  _298
REMARK  119  A    between atoms: _297  and  _300
REMARK  120  A    between atoms: _303  and  _305
REMARK  121  A    between atoms: _305  and  _306
REMARK  122  A    between atoms: _305  and  _308
REMARK  123  A    between atoms: _308  and  _309
REMARK  124  A    between atoms: _312  and  _314
REMARK  125  A    between atoms: _314  and  _315
REMARK  126  A    between atoms: _314  and  _317
REMARK  127  A    between atoms: _320  and  _322
REMARK  128  A    between atoms: _322  and  _323
REMARK  129  A    between atoms: _322  and  _325
REMARK  130  A    between atoms: _325  and  _326
REMARK                            x       y       z     vdW  Elec       q    Type
REMARK                         _______ _______ _______ _____ _____    ______ ____
ROOT
ATOM      1  O   HOH     1      17.137  75.004  42.458  0.00  0.00    +0.000 OA
ENDROOT
TORSDOF 0
REMARK  Name = ../refined-set-2016/1fh7/1fh7_pocket.pdb
REMARK  130 active torsions:
REMARK  status: ('A' for Active; 'I' for Inactive)
REMARK    1  A    between atoms: _1  and  _3
REMARK    2  A    between atoms: _3  and  _4
REMARK    3  A    between atoms: _7  and  _9
REMARK    4  A    between atoms: _9  and  _10
REMARK    5  A    between atoms: _9  and  _12
REMARK    6  A    between atoms: _12  and  _13
REMARK    7  A    between atoms: _16  and  _18
REMARK    8  A    between atoms: _18  and  _19
REMARK    9  A    between atoms: _22  and  _24
REMARK   10  A    between atoms: _24  and  _25
REMARK   11  A    between atoms: _24  and  _27
REMARK   12  A    between atoms: _27  and  _28
REMARK   13  A    between atoms: _28  and  _29
REMARK   14  A    between atoms: _32  and  _34
REMARK   15  A    between atoms: _34  and  _35
REMARK   16  A    between atoms: _34  and  _37
REMARK   17  A    between atoms: _37  and  _38
REMARK   18  A    between atoms: _43  and  _45
REMARK   19  A    between atoms: _45  and  _46
REMARK   20  A    between atoms: _45  and  _48
REMARK   21  A    between atoms: _48  and  _49
REMARK   22  A    between atoms: _49  and  _50
REMARK   23  A    between atoms: _50  and  _51
REMARK   24  A    between atoms: _51  and  _52
REMARK   25  A    between atoms: _56  and  _58
REMARK   26  A    between atoms: _58  and  _59
REMARK   27  A    between atoms: _58  and  _61
REMARK   28  A    between atoms: _61  and  _62
REMARK   29  A    between atoms: _65  and  _67
REMARK   30  A    between atoms: _67  and  _68
REMARK   31  A    between atoms: _67  and  _70
REMARK   32  A    between atoms: _70  and  _71
REMARK   33  A    between atoms: _76  and  _78
REMARK   34  A    between atoms: _78  and  _79
REMARK   35  A    between atoms: _78  and  _81
REMARK   36  A    between atoms: _81  and  _82
REMARK   37  A    between atoms: _85  and  _87
REMARK   38  A    between atoms: _87  and  _88
REMARK   39  A    between atoms: _87  and  _90
REMARK   40  A    between atoms: _90  and  _91
REMARK   41  A    between atoms: _101  and  _103
REMARK   42  A    between atoms: _103  and  _104
REMARK   43  A    between atoms: _103  and  _106
REMARK   44  A    between atoms: _106  and  _107
REMARK   45  A    between atoms: _109  and  _111
REMARK   46  A    between atoms: _111  and  _112
REMARK   47  A    between atoms: _111  and  _114
REMARK   48  A    between atoms: _114  and  _115
REMARK   49  A    between atoms: _115  and  _116
REMARK   50  A    between atoms: _121  and  _123
REMARK   51  A    between atoms: _123  and  _124
REMARK   52  A    between atoms: _123  and  _126
REMARK   53  A    between atoms: _126  and  _127
REMARK   54  A    between atoms: _130  and  _132
REMARK   55  A    between atoms: _132  and  _133
REMARK   56  A    between atoms: _132  and  _135
REMARK   57  A    between atoms: _135  and  _136
REMARK   58  A    between atoms: _141  and  _143
REMARK   59  A    between atoms: _143  and  _144
REMARK   60  A    between atoms: _143  and  _146
REMARK   61  A    between atoms: _146  and  _147
REMARK   62  A    between atoms: _147  and  _148
REMARK   63  A    between atoms: _151  and  _153
REMARK   64  A    between atoms: _153  and  _154
REMARK   65  A    between atoms: _153  and  _156
REMARK   66  A    between atoms: _156  and  _157
REMARK   67  A    between atoms: _162  and  _164
REMARK   68  A    between atoms: _164  and  _165
REMARK   69  A    between atoms: _164  and  _167
REMARK   70  A    between atoms: _167  and  _168
REMARK   71  A    between atoms: _171  and  _173
REMARK   72  A    between atoms: _173  and  _174
REMARK   73  A    between atoms: _173  and  _176
REMARK   74  A    between atoms: _176  and  _177
REMARK   75  A    between atoms: _182  and  _183
REMARK   76  A    between atoms: _185  and  _187
REMARK   77  A    between atoms: _187  and  _188
REMARK   78  A    between atoms: _187  and  _190
REMARK   79  A    between atoms: _190  and  _191
REMARK   80  A    between atoms: _191  and  _192
REMARK   81  A    between atoms: _197  and  _199
REMARK   82  A    between atoms: _199  and  _200
REMARK   83  A    between atoms: _199  and  _202
REMARK   84  A    between atoms: _202  and  _203
REMARK   85  A    between atoms: _208  and  _210
REMARK   86  A    between atoms: _210  and  _211
REMARK   87  A    between atoms: _210  and  _213
REMARK   88  A    between atoms: _213  and  _214
REMARK   89  A    between atoms: _217  and  _219
REMARK   90  A    between atoms: _219  and  _220
REMARK   91  A    between atoms: _219  and  _222
REMARK   92  A    between atoms: _222  and  _223
REMARK   93  A    between atoms: _223  and  _224
REMARK   94  A    between atoms: _227  and  _229
REMARK   95  A    between atoms: _229  and  _230
REMARK   96  A    between atoms: _229  and  _232
REMARK   97  A    between atoms: _232  and  _233
REMARK   98  A    between atoms: _236  and  _238
REMARK   99  A    between atoms: _238  and  _239
REMARK  100  A    between atoms: _238  and  _241
REMARK  101  A    between atoms: _241  and  _242
REMARK  102  A    between atoms: _252  and  _254
REMARK  103  A    between atoms: _254  and  _255
REMARK  104  A    between atoms: _257  and  _259
REMARK  105  A    between atoms: _259  and  _260
REMARK  106  A    between atoms: _259  and  _262
REMARK  107  A    between atoms: _262  and  _263
REMARK  108  A    between atoms: _268  and  _269
REMARK  109  A    between atoms: _271  and  _273
REMARK  110  A    between atoms: _273  and  _274
REMARK  111  A    between atoms: _273  and  _276
REMARK  112  A    between atoms: _276  and  _277
REMARK  113  A    between atoms: _279  and  _281
REMARK  114  A    between atoms: _281  and  _282
REMARK  115  A    between atoms: _281  and  _284
REMARK  116  A    between atoms: _284  and  _285
REMARK  117  A    between atoms: _295  and  _297
REMARK  118  A    between atoms: _297  and  _298
REMARK  119  A    between atoms: _297  and  _300
REMARK  120  A    between atoms: _303  and  _305
REMARK  121  A    between atoms: _305  and  _306
REMARK  122  A    between atoms: _305  and  _308
REMARK  123  A    between atoms: _308  and  _309
REMARK  124  A    between atoms: _312  and  _314
REMARK  125  A    between atoms: _314  and  _315
REMARK  126  A    between atoms: _314  and  _317
REMARK  127  A    between atoms: _320  and  _322
REMARK  128  A    between atoms: _322  and  _323
REMARK  129  A    between atoms: _322  and  _325
REMARK  130  A    between atoms: _325  and  _326
REMARK                            x       y       z     vdW  Elec       q    Type
REMARK                         _______ _______ _______ _____ _____    ______ ____
ROOT
ATOM      1  O   HOH     1      19.360  57.629  41.890  0.00  0.00    +0.000 OA
ENDROOT
TORSDOF 0
REMARK  Name = ../refined-set-2016/1fh7/1fh7_pocket.pdb
REMARK  130 active torsions:
REMARK  status: ('A' for Active; 'I' for Inactive)
REMARK    1  A    between atoms: _1  and  _3
REMARK    2  A    between atoms: _3  and  _4
REMARK    3  A    between atoms: _7  and  _9
REMARK    4  A    between atoms: _9  and  _10
REMARK    5  A    between atoms: _9  and  _12
REMARK    6  A    between atoms: _12  and  _13
REMARK    7  A    between atoms: _16  and  _18
REMARK    8  A    between atoms: _18  and  _19
REMARK    9  A    between atoms: _22  and  _24
REMARK   10  A    between atoms: _24  and  _25
REMARK   11  A    between atoms: _24  and  _27
REMARK   12  A    between atoms: _27  and  _28
REMARK   13  A    between atoms: _28  and  _29
REMARK   14  A    between atoms: _32  and  _34
REMARK   15  A    between atoms: _34  and  _35
REMARK   16  A    between atoms: _34  and  _37
REMARK   17  A    between atoms: _37  and  _38
REMARK   18  A    between atoms: _43  and  _45
REMARK   19  A    between atoms: _45  and  _46
REMARK   20  A    between atoms: _45  and  _48
REMARK   21  A    between atoms: _48  and  _49
REMARK   22  A    between atoms: _49  and  _50
REMARK   23  A    between atoms: _50  and  _51
REMARK   24  A    between atoms: _51  and  _52
REMARK   25  A    between atoms: _56  and  _58
REMARK   26  A    between atoms: _58  and  _59
REMARK   27  A    between atoms: _58  and  _61
REMARK   28  A    between atoms: _61  and  _62
REMARK   29  A    between atoms: _65  and  _67
REMARK   30  A    between atoms: _67  and  _68
REMARK   31  A    between atoms: _67  and  _70
REMARK   32  A    between atoms: _70  and  _71
REMARK   33  A    between atoms: _76  and  _78
REMARK   34  A    between atoms: _78  and  _79
REMARK   35  A    between atoms: _78  and  _81
REMARK   36  A    between atoms: _81  and  _82
REMARK   37  A    between atoms: _85  and  _87
REMARK   38  A    between atoms: _87  and  _88
REMARK   39  A    between atoms: _87  and  _90
REMARK   40  A    between atoms: _90  and  _91
REMARK   41  A    between atoms: _101  and  _103
REMARK   42  A    between atoms: _103  and  _104
REMARK   43  A    between atoms: _103  and  _106
REMARK   44  A    between atoms: _106  and  _107
REMARK   45  A    between atoms: _109  and  _111
REMARK   46  A    between atoms: _111  and  _112
REMARK   47  A    between atoms: _111  and  _114
REMARK   48  A    between atoms: _114  and  _115
REMARK   49  A    between atoms: _115  and  _116
REMARK   50  A    between atoms: _121  and  _123
REMARK   51  A    between atoms: _123  and  _124
REMARK   52  A    between atoms: _123  and  _126
REMARK   53  A    between atoms: _126  and  _127
REMARK   54  A    between atoms: _130  and  _132
REMARK   55  A    between atoms: _132  and  _133
REMARK   56  A    between atoms: _132  and  _135
REMARK   57  A    between atoms: _135  and  _136
REMARK   58  A    between atoms: _141  and  _143
REMARK   59  A    between atoms: _143  and  _144
REMARK   60  A    between atoms: _143  and  _146
REMARK   61  A    between atoms: _146  and  _147
REMARK   62  A    between atoms: _147  and  _148
REMARK   63  A    between atoms: _151  and  _153
REMARK   64  A    between atoms: _153  and  _154
REMARK   65  A    between atoms: _153  and  _156
REMARK   66  A    between atoms: _156  and  _157
REMARK   67  A    between atoms: _162  and  _164
REMARK   68  A    between atoms: _164  and  _165
REMARK   69  A    between atoms: _164  and  _167
REMARK   70  A    between atoms: _167  and  _168
REMARK   71  A    between atoms: _171  and  _173
REMARK   72  A    between atoms: _173  and  _174
REMARK   73  A    between atoms: _173  and  _176
REMARK   74  A    between atoms: _176  and  _177
REMARK   75  A    between atoms: _182  and  _183
REMARK   76  A    between atoms: _185  and  _187
REMARK   77  A    between atoms: _187  and  _188
REMARK   78  A    between atoms: _187  and  _190
REMARK   79  A    between atoms: _190  and  _191
REMARK   80  A    between atoms: _191  and  _192
REMARK   81  A    between atoms: _197  and  _199
REMARK   82  A    between atoms: _199  and  _200
REMARK   83  A    between atoms: _199  and  _202
REMARK   84  A    between atoms: _202  and  _203
REMARK   85  A    between atoms: _208  and  _210
REMARK   86  A    between atoms: _210  and  _211
REMARK   87  A    between atoms: _210  and  _213
REMARK   88  A    between atoms: _213  and  _214
REMARK   89  A    between atoms: _217  and  _219
REMARK   90  A    between atoms: _219  and  _220
REMARK   91  A    between atoms: _219  and  _222
REMARK   92  A    between atoms: _222  and  _223
REMARK   93  A    between atoms: _223  and  _224
REMARK   94  A    between atoms: _227  and  _229
REMARK   95  A    between atoms: _229  and  _230
REMARK   96  A    between atoms: _229  and  _232
REMARK   97  A    between atoms: _232  and  _233
REMARK   98  A    between atoms: _236  and  _238
REMARK   99  A    between atoms: _238  and  _239
REMARK  100  A    between atoms: _238  and  _241
REMARK  101  A    between atoms: _241  and  _242
REMARK  102  A    between atoms: _252  and  _254
REMARK  103  A    between atoms: _254  and  _255
REMARK  104  A    between atoms: _257  and  _259
REMARK  105  A    between atoms: _259  and  _260
REMARK  106  A    between atoms: _259  and  _262
REMARK  107  A    between atoms: _262  and  _263
REMARK  108  A    between atoms: _268  and  _269
REMARK  109  A    between atoms: _271  and  _273
REMARK  110  A    between atoms: _273  and  _274
REMARK  111  A    between atoms: _273  and  _276
REMARK  112  A    between atoms: _276  and  _277
REMARK  113  A    between atoms: _279  and  _281
REMARK  114  A    between atoms: _281  and  _282
REMARK  115  A    between atoms: _281  and  _284
REMARK  116  A    between atoms: _284  and  _285
REMARK  117  A    between atoms: _295  and  _297
REMARK  118  A    between atoms: _297  and  _298
REMARK  119  A    between atoms: _297  and  _300
REMARK  120  A    between atoms: _303  and  _305
REMARK  121  A    between atoms: _305  and  _306
REMARK  122  A    between atoms: _305  and  _308
REMARK  123  A    between atoms: _308  and  _309
REMARK  124  A    between atoms: _312  and  _314
REMARK  125  A    between atoms: _314  and  _315
REMARK  126  A    between atoms: _314  and  _317
REMARK  127  A    between atoms: _320  and  _322
REMARK  128  A    between atoms: _322  and  _323
REMARK  129  A    between atoms: _322  and  _325
REMARK  130  A    between atoms: _325  and  _326
REMARK                            x       y       z     vdW  Elec       q    Type
REMARK                         _______ _______ _______ _____ _____    ______ ____
ROOT
ATOM      1  O   HOH     1      21.197  58.443  37.159  0.00  0.00    +0.000 OA
ENDROOT
TORSDOF 0
REMARK  Name = ../refined-set-2016/1fh7/1fh7_pocket.pdb
REMARK  130 active torsions:
REMARK  status: ('A' for Active; 'I' for Inactive)
REMARK    1  A    between atoms: _1  and  _3
REMARK    2  A    between atoms: _3  and  _4
REMARK    3  A    between atoms: _7  and  _9
REMARK    4  A    between atoms: _9  and  _10
REMARK    5  A    between atoms: _9  and  _12
REMARK    6  A    between atoms: _12  and  _13
REMARK    7  A    between atoms: _16  and  _18
REMARK    8  A    between atoms: _18  and  _19
REMARK    9  A    between atoms: _22  and  _24
REMARK   10  A    between atoms: _24  and  _25
REMARK   11  A    between atoms: _24  and  _27
REMARK   12  A    between atoms: _27  and  _28
REMARK   13  A    between atoms: _28  and  _29
REMARK   14  A    between atoms: _32  and  _34
REMARK   15  A    between atoms: _34  and  _35
REMARK   16  A    between atoms: _34  and  _37
REMARK   17  A    between atoms: _37  and  _38
REMARK   18  A    between atoms: _43  and  _45
REMARK   19  A    between atoms: _45  and  _46
REMARK   20  A    between atoms: _45  and  _48
REMARK   21  A    between atoms: _48  and  _49
REMARK   22  A    between atoms: _49  and  _50
REMARK   23  A    between atoms: _50  and  _51
REMARK   24  A    between atoms: _51  and  _52
REMARK   25  A    between atoms: _56  and  _58
REMARK   26  A    between atoms: _58  and  _59
REMARK   27  A    between atoms: _58  and  _61
REMARK   28  A    between atoms: _61  and  _62
REMARK   29  A    between atoms: _65  and  _67
REMARK   30  A    between atoms: _67  and  _68
REMARK   31  A    between atoms: _67  and  _70
REMARK   32  A    between atoms: _70  and  _71
REMARK   33  A    between atoms: _76  and  _78
REMARK   34  A    between atoms: _78  and  _79
REMARK   35  A    between atoms: _78  and  _81
REMARK   36  A    between atoms: _81  and  _82
REMARK   37  A    between atoms: _85  and  _87
REMARK   38  A    between atoms: _87  and  _88
REMARK   39  A    between atoms: _87  and  _90
REMARK   40  A    between atoms: _90  and  _91
REMARK   41  A    between atoms: _101  and  _103
REMARK   42  A    between atoms: _103  and  _104
REMARK   43  A    between atoms: _103  and  _106
REMARK   44  A    between atoms: _106  and  _107
REMARK   45  A    between atoms: _109  and  _111
REMARK   46  A    between atoms: _111  and  _112
REMARK   47  A    between atoms: _111  and  _114
REMARK   48  A    between atoms: _114  and  _115
REMARK   49  A    between atoms: _115  and  _116
REMARK   50  A    between atoms: _121  and  _123
REMARK   51  A    between atoms: _123  and  _124
REMARK   52  A    between atoms: _123  and  _126
REMARK   53  A    between atoms: _126  and  _127
REMARK   54  A    between atoms: _130  and  _132
REMARK   55  A    between atoms: _132  and  _133
REMARK   56  A    between atoms: _132  and  _135
REMARK   57  A    between atoms: _135  and  _136
REMARK   58  A    between atoms: _141  and  _143
REMARK   59  A    between atoms: _143  and  _144
REMARK   60  A    between atoms: _143  and  _146
REMARK   61  A    between atoms: _146  and  _147
REMARK   62  A    between atoms: _147  and  _148
REMARK   63  A    between atoms: _151  and  _153
REMARK   64  A    between atoms: _153  and  _154
REMARK   65  A    between atoms: _153  and  _156
REMARK   66  A    between atoms: _156  and  _157
REMARK   67  A    between atoms: _162  and  _164
REMARK   68  A    between atoms: _164  and  _165
REMARK   69  A    between atoms: _164  and  _167
REMARK   70  A    between atoms: _167  and  _168
REMARK   71  A    between atoms: _171  and  _173
REMARK   72  A    between atoms: _173  and  _174
REMARK   73  A    between atoms: _173  and  _176
REMARK   74  A    between atoms: _176  and  _177
REMARK   75  A    between atoms: _182  and  _183
REMARK   76  A    between atoms: _185  and  _187
REMARK   77  A    between atoms: _187  and  _188
REMARK   78  A    between atoms: _187  and  _190
REMARK   79  A    between atoms: _190  and  _191
REMARK   80  A    between atoms: _191  and  _192
REMARK   81  A    between atoms: _197  and  _199
REMARK   82  A    between atoms: _199  and  _200
REMARK   83  A    between atoms: _199  and  _202
REMARK   84  A    between atoms: _202  and  _203
REMARK   85  A    between atoms: _208  and  _210
REMARK   86  A    between atoms: _210  and  _211
REMARK   87  A    between atoms: _210  and  _213
REMARK   88  A    between atoms: _213  and  _214
REMARK   89  A    between atoms: _217  and  _219
REMARK   90  A    between atoms: _219  and  _220
REMARK   91  A    between atoms: _219  and  _222
REMARK   92  A    between atoms: _222  and  _223
REMARK   93  A    between atoms: _223  and  _224
REMARK   94  A    between atoms: _227  and  _229
REMARK   95  A    between atoms: _229  and  _230
REMARK   96  A    between atoms: _229  and  _232
REMARK   97  A    between atoms: _232  and  _233
REMARK   98  A    between atoms: _236  and  _238
REMARK   99  A    between atoms: _238  and  _239
REMARK  100  A    between atoms: _238  and  _241
REMARK  101  A    between atoms: _241  and  _242
REMARK  102  A    between atoms: _252  and  _254
REMARK  103  A    between atoms: _254  and  _255
REMARK  104  A    between atoms: _257  and  _259
REMARK  105  A    between atoms: _259  and  _260
REMARK  106  A    between atoms: _259  and  _262
REMARK  107  A    between atoms: _262  and  _263
REMARK  108  A    between atoms: _268  and  _269
REMARK  109  A    between atoms: _271  and  _273
REMARK  110  A    between atoms: _273  and  _274
REMARK  111  A    between atoms: _273  and  _276
REMARK  112  A    between atoms: _276  and  _277
REMARK  113  A    between atoms: _279  and  _281
REMARK  114  A    between atoms: _281  and  _282
REMARK  115  A    between atoms: _281  and  _284
REMARK  116  A    between atoms: _284  and  _285
REMARK  117  A    between atoms: _295  and  _297
REMARK  118  A    between atoms: _297  and  _298
REMARK  119  A    between atoms: _297  and  _300
REMARK  120  A    between atoms: _303  and  _305
REMARK  121  A    between atoms: _305  and  _306
REMARK  122  A    between atoms: _305  and  _308
REMARK  123  A    between atoms: _308  and  _309
REMARK  124  A    between atoms: _312  and  _314
REMARK  125  A    between atoms: _314  and  _315
REMARK  126  A    between atoms: _314  and  _317
REMARK  127  A    between atoms: _320  and  _322
REMARK  128  A    between atoms: _322  and  _323
REMARK  129  A    between atoms: _322  and  _325
REMARK  130  A    between atoms: _325  and  _326
REMARK                            x       y       z     vdW  Elec       q    Type
REMARK                         _______ _______ _______ _____ _____    ______ ____
ROOT
ATOM      1  O   HOH     1      13.625  69.219  45.177  0.00  0.00    +0.000 OA
ENDROOT
TORSDOF 0
REMARK  Name = ../refined-set-2016/1fh7/1fh7_pocket.pdb
REMARK  130 active torsions:
REMARK  status: ('A' for Active; 'I' for Inactive)
REMARK    1  A    between atoms: _1  and  _3
REMARK    2  A    between atoms: _3  and  _4
REMARK    3  A    between atoms: _7  and  _9
REMARK    4  A    between atoms: _9  and  _10
REMARK    5  A    between atoms: _9  and  _12
REMARK    6  A    between atoms: _12  and  _13
REMARK    7  A    between atoms: _16  and  _18
REMARK    8  A    between atoms: _18  and  _19
REMARK    9  A    between atoms: _22  and  _24
REMARK   10  A    between atoms: _24  and  _25
REMARK   11  A    between atoms: _24  and  _27
REMARK   12  A    between atoms: _27  and  _28
REMARK   13  A    between atoms: _28  and  _29
REMARK   14  A    between atoms: _32  and  _34
REMARK   15  A    between atoms: _34  and  _35
REMARK   16  A    between atoms: _34  and  _37
REMARK   17  A    between atoms: _37  and  _38
REMARK   18  A    between atoms: _43  and  _45
REMARK   19  A    between atoms: _45  and  _46
REMARK   20  A    between atoms: _45  and  _48
REMARK   21  A    between atoms: _48  and  _49
REMARK   22  A    between atoms: _49  and  _50
REMARK   23  A    between atoms: _50  and  _51
REMARK   24  A    between atoms: _51  and  _52
REMARK   25  A    between atoms: _56  and  _58
REMARK   26  A    between atoms: _58  and  _59
REMARK   27  A    between atoms: _58  and  _61
REMARK   28  A    between atoms: _61  and  _62
REMARK   29  A    between atoms: _65  and  _67
REMARK   30  A    between atoms: _67  and  _68
REMARK   31  A    between atoms: _67  and  _70
REMARK   32  A    between atoms: _70  and  _71
REMARK   33  A    between atoms: _76  and  _78
REMARK   34  A    between atoms: _78  and  _79
REMARK   35  A    between atoms: _78  and  _81
REMARK   36  A    between atoms: _81  and  _82
REMARK   37  A    between atoms: _85  and  _87
REMARK   38  A    between atoms: _87  and  _88
REMARK   39  A    between atoms: _87  and  _90
REMARK   40  A    between atoms: _90  and  _91
REMARK   41  A    between atoms: _101  and  _103
REMARK   42  A    between atoms: _103  and  _104
REMARK   43  A    between atoms: _103  and  _106
REMARK   44  A    between atoms: _106  and  _107
REMARK   45  A    between atoms: _109  and  _111
REMARK   46  A    between atoms: _111  and  _112
REMARK   47  A    between atoms: _111  and  _114
REMARK   48  A    between atoms: _114  and  _115
REMARK   49  A    between atoms: _115  and  _116
REMARK   50  A    between atoms: _121  and  _123
REMARK   51  A    between atoms: _123  and  _124
REMARK   52  A    between atoms: _123  and  _126
REMARK   53  A    between atoms: _126  and  _127
REMARK   54  A    between atoms: _130  and  _132
REMARK   55  A    between atoms: _132  and  _133
REMARK   56  A    between atoms: _132  and  _135
REMARK   57  A    between atoms: _135  and  _136
REMARK   58  A    between atoms: _141  and  _143
REMARK   59  A    between atoms: _143  and  _144
REMARK   60  A    between atoms: _143  and  _146
REMARK   61  A    between atoms: _146  and  _147
REMARK   62  A    between atoms: _147  and  _148
REMARK   63  A    between atoms: _151  and  _153
REMARK   64  A    between atoms: _153  and  _154
REMARK   65  A    between atoms: _153  and  _156
REMARK   66  A    between atoms: _156  and  _157
REMARK   67  A    between atoms: _162  and  _164
REMARK   68  A    between atoms: _164  and  _165
REMARK   69  A    between atoms: _164  and  _167
REMARK   70  A    between atoms: _167  and  _168
REMARK   71  A    between atoms: _171  and  _173
REMARK   72  A    between atoms: _173  and  _174
REMARK   73  A    between atoms: _173  and  _176
REMARK   74  A    between atoms: _176  and  _177
REMARK   75  A    between atoms: _182  and  _183
REMARK   76  A    between atoms: _185  and  _187
REMARK   77  A    between atoms: _187  and  _188
REMARK   78  A    between atoms: _187  and  _190
REMARK   79  A    between atoms: _190  and  _191
REMARK   80  A    between atoms: _191  and  _192
REMARK   81  A    between atoms: _197  and  _199
REMARK   82  A    between atoms: _199  and  _200
REMARK   83  A    between atoms: _199  and  _202
REMARK   84  A    between atoms: _202  and  _203
REMARK   85  A    between atoms: _208  and  _210
REMARK   86  A    between atoms: _210  and  _211
REMARK   87  A    between atoms: _210  and  _213
REMARK   88  A    between atoms: _213  and  _214
REMARK   89  A    between atoms: _217  and  _219
REMARK   90  A    between atoms: _219  and  _220
REMARK   91  A    between atoms: _219  and  _222
REMARK   92  A    between atoms: _222  and  _223
REMARK   93  A    between atoms: _223  and  _224
REMARK   94  A    between atoms: _227  and  _229
REMARK   95  A    between atoms: _229  and  _230
REMARK   96  A    between atoms: _229  and  _232
REMARK   97  A    between atoms: _232  and  _233
REMARK   98  A    between atoms: _236  and  _238
REMARK   99  A    between atoms: _238  and  _239
REMARK  100  A    between atoms: _238  and  _241
REMARK  101  A    between atoms: _241  and  _242
REMARK  102  A    between atoms: _252  and  _254
REMARK  103  A    between atoms: _254  and  _255
REMARK  104  A    between atoms: _257  and  _259
REMARK  105  A    between atoms: _259  and  _260
REMARK  106  A    between atoms: _259  and  _262
REMARK  107  A    between atoms: _262  and  _263
REMARK  108  A    between atoms: _268  and  _269
REMARK  109  A    between atoms: _271  and  _273
REMARK  110  A    between atoms: _273  and  _274
REMARK  111  A    between atoms: _273  and  _276
REMARK  112  A    between atoms: _276  and  _277
REMARK  113  A    between atoms: _279  and  _281
REMARK  114  A    between atoms: _281  and  _282
REMARK  115  A    between atoms: _281  and  _284
REMARK  116  A    between atoms: _284  and  _285
REMARK  117  A    between atoms: _295  and  _297
REMARK  118  A    between atoms: _297  and  _298
REMARK  119  A    between atoms: _297  and  _300
REMARK  120  A    between atoms: _303  and  _305
REMARK  121  A    between atoms: _305  and  _306
REMARK  122  A    between atoms: _305  and  _308
REMARK  123  A    between atoms: _308  and  _309
REMARK  124  A    between atoms: _312  and  _314
REMARK  125  A    between atoms: _314  and  _315
REMARK  126  A    between atoms: _314  and  _317
REMARK  127  A    between atoms: _320  and  _322
REMARK  128  A    between atoms: _322  and  _323
REMARK  129  A    between atoms: _322  and  _325
REMARK  130  A    between atoms: _325  and  _326
REMARK                            x       y       z     vdW  Elec       q    Type
REMARK                         _______ _______ _______ _____ _____    ______ ____
ROOT
ATOM      1  O   HOH     1      15.802  62.035  45.229  0.00  0.00    +0.000 OA
ENDROOT
TORSDOF 0
REMARK  Name = ../refined-set-2016/1fh7/1fh7_pocket.pdb
REMARK  130 active torsions:
REMARK  status: ('A' for Active; 'I' for Inactive)
REMARK    1  A    between atoms: _1  and  _3
REMARK    2  A    between atoms: _3  and  _4
REMARK    3  A    between atoms: _7  and  _9
REMARK    4  A    between atoms: _9  and  _10
REMARK    5  A    between atoms: _9  and  _12
REMARK    6  A    between atoms: _12  and  _13
REMARK    7  A    between atoms: _16  and  _18
REMARK    8  A    between atoms: _18  and  _19
REMARK    9  A    between atoms: _22  and  _24
REMARK   10  A    between atoms: _24  and  _25
REMARK   11  A    between atoms: _24  and  _27
REMARK   12  A    between atoms: _27  and  _28
REMARK   13  A    between atoms: _28  and  _29
REMARK   14  A    between atoms: _32  and  _34
REMARK   15  A    between atoms: _34  and  _35
REMARK   16  A    between atoms: _34  and  _37
REMARK   17  A    between atoms: _37  and  _38
REMARK   18  A    between atoms: _43  and  _45
REMARK   19  A    between atoms: _45  and  _46
REMARK   20  A    between atoms: _45  and  _48
REMARK   21  A    between atoms: _48  and  _49
REMARK   22  A    between atoms: _49  and  _50
REMARK   23  A    between atoms: _50  and  _51
REMARK   24  A    between atoms: _51  and  _52
REMARK   25  A    between atoms: _56  and  _58
REMARK   26  A    between atoms: _58  and  _59
REMARK   27  A    between atoms: _58  and  _61
REMARK   28  A    between atoms: _61  and  _62
REMARK   29  A    between atoms: _65  and  _67
REMARK   30  A    between atoms: _67  and  _68
REMARK   31  A    between atoms: _67  and  _70
REMARK   32  A    between atoms: _70  and  _71
REMARK   33  A    between atoms: _76  and  _78
REMARK   34  A    between atoms: _78  and  _79
REMARK   35  A    between atoms: _78  and  _81
REMARK   36  A    between atoms: _81  and  _82
REMARK   37  A    between atoms: _85  and  _87
REMARK   38  A    between atoms: _87  and  _88
REMARK   39  A    between atoms: _87  and  _90
REMARK   40  A    between atoms: _90  and  _91
REMARK   41  A    between atoms: _101  and  _103
REMARK   42  A    between atoms: _103  and  _104
REMARK   43  A    between atoms: _103  and  _106
REMARK   44  A    between atoms: _106  and  _107
REMARK   45  A    between atoms: _109  and  _111
REMARK   46  A    between atoms: _111  and  _112
REMARK   47  A    between atoms: _111  and  _114
REMARK   48  A    between atoms: _114  and  _115
REMARK   49  A    between atoms: _115  and  _116
REMARK   50  A    between atoms: _121  and  _123
REMARK   51  A    between atoms: _123  and  _124
REMARK   52  A    between atoms: _123  and  _126
REMARK   53  A    between atoms: _126  and  _127
REMARK   54  A    between atoms: _130  and  _132
REMARK   55  A    between atoms: _132  and  _133
REMARK   56  A    between atoms: _132  and  _135
REMARK   57  A    between atoms: _135  and  _136
REMARK   58  A    between atoms: _141  and  _143
REMARK   59  A    between atoms: _143  and  _144
REMARK   60  A    between atoms: _143  and  _146
REMARK   61  A    between atoms: _146  and  _147
REMARK   62  A    between atoms: _147  and  _148
REMARK   63  A    between atoms: _151  and  _153
REMARK   64  A    between atoms: _153  and  _154
REMARK   65  A    between atoms: _153  and  _156
REMARK   66  A    between atoms: _156  and  _157
REMARK   67  A    between atoms: _162  and  _164
REMARK   68  A    between atoms: _164  and  _165
REMARK   69  A    between atoms: _164  and  _167
REMARK   70  A    between atoms: _167  and  _168
REMARK   71  A    between atoms: _171  and  _173
REMARK   72  A    between atoms: _173  and  _174
REMARK   73  A    between atoms: _173  and  _176
REMARK   74  A    between atoms: _176  and  _177
REMARK   75  A    between atoms: _182  and  _183
REMARK   76  A    between atoms: _185  and  _187
REMARK   77  A    between atoms: _187  and  _188
REMARK   78  A    between atoms: _187  and  _190
REMARK   79  A    between atoms: _190  and  _191
REMARK   80  A    between atoms: _191  and  _192
REMARK   81  A    between atoms: _197  and  _199
REMARK   82  A    between atoms: _199  and  _200
REMARK   83  A    between atoms: _199  and  _202
REMARK   84  A    between atoms: _202  and  _203
REMARK   85  A    between atoms: _208  and  _210
REMARK   86  A    between atoms: _210  and  _211
REMARK   87  A    between atoms: _210  and  _213
REMARK   88  A    between atoms: _213  and  _214
REMARK   89  A    between atoms: _217  and  _219
REMARK   90  A    between atoms: _219  and  _220
REMARK   91  A    between atoms: _219  and  _222
REMARK   92  A    between atoms: _222  and  _223
REMARK   93  A    between atoms: _223  and  _224
REMARK   94  A    between atoms: _227  and  _229
REMARK   95  A    between atoms: _229  and  _230
REMARK   96  A    between atoms: _229  and  _232
REMARK   97  A    between atoms: _232  and  _233
REMARK   98  A    between atoms: _236  and  _238
REMARK   99  A    between atoms: _238  and  _239
REMARK  100  A    between atoms: _238  and  _241
REMARK  101  A    between atoms: _241  and  _242
REMARK  102  A    between atoms: _252  and  _254
REMARK  103  A    between atoms: _254  and  _255
REMARK  104  A    between atoms: _257  and  _259
REMARK  105  A    between atoms: _259  and  _260
REMARK  106  A    between atoms: _259  and  _262
REMARK  107  A    between atoms: _262  and  _263
REMARK  108  A    between atoms: _268  and  _269
REMARK  109  A    between atoms: _271  and  _273
REMARK  110  A    between atoms: _273  and  _274
REMARK  111  A    between atoms: _273  and  _276
REMARK  112  A    between atoms: _276  and  _277
REMARK  113  A    between atoms: _279  and  _281
REMARK  114  A    between atoms: _281  and  _282
REMARK  115  A    between atoms: _281  and  _284
REMARK  116  A    between atoms: _284  and  _285
REMARK  117  A    between atoms: _295  and  _297
REMARK  118  A    between atoms: _297  and  _298
REMARK  119  A    between atoms: _297  and  _300
REMARK  120  A    between atoms: _303  and  _305
REMARK  121  A    between atoms: _305  and  _306
REMARK  122  A    between atoms: _305  and  _308
REMARK  123  A    between atoms: _308  and  _309
REMARK  124  A    between atoms: _312  and  _314
REMARK  125  A    between atoms: _314  and  _315
REMARK  126  A    between atoms: _314  and  _317
REMARK  127  A    between atoms: _320  and  _322
REMARK  128  A    between atoms: _322  and  _323
REMARK  129  A    between atoms: _322  and  _325
REMARK  130  A    between atoms: _325  and  _326
REMARK                            x       y       z     vdW  Elec       q    Type
REMARK                         _______ _______ _______ _____ _____    ______ ____
ROOT
ATOM      1  O   HOH     1      13.862  60.676  39.986  0.00  0.00    +0.000 OA
ENDROOT
TORSDOF 0
REMARK  Name = ../refined-set-2016/1fh7/1fh7_pocket.pdb
REMARK  130 active torsions:
REMARK  status: ('A' for Active; 'I' for Inactive)
REMARK    1  A    between atoms: _1  and  _3
REMARK    2  A    between atoms: _3  and  _4
REMARK    3  A    between atoms: _7  and  _9
REMARK    4  A    between atoms: _9  and  _10
REMARK    5  A    between atoms: _9  and  _12
REMARK    6  A    between atoms: _12  and  _13
REMARK    7  A    between atoms: _16  and  _18
REMARK    8  A    between atoms: _18  and  _19
REMARK    9  A    between atoms: _22  and  _24
REMARK   10  A    between atoms: _24  and  _25
REMARK   11  A    between atoms: _24  and  _27
REMARK   12  A    between atoms: _27  and  _28
REMARK   13  A    between atoms: _28  and  _29
REMARK   14  A    between atoms: _32  and  _34
REMARK   15  A    between atoms: _34  and  _35
REMARK   16  A    between atoms: _34  and  _37
REMARK   17  A    between atoms: _37  and  _38
REMARK   18  A    between atoms: _43  and  _45
REMARK   19  A    between atoms: _45  and  _46
REMARK   20  A    between atoms: _45  and  _48
REMARK   21  A    between atoms: _48  and  _49
REMARK   22  A    between atoms: _49  and  _50
REMARK   23  A    between atoms: _50  and  _51
REMARK   24  A    between atoms: _51  and  _52
REMARK   25  A    between atoms: _56  and  _58
REMARK   26  A    between atoms: _58  and  _59
REMARK   27  A    between atoms: _58  and  _61
REMARK   28  A    between atoms: _61  and  _62
REMARK   29  A    between atoms: _65  and  _67
REMARK   30  A    between atoms: _67  and  _68
REMARK   31  A    between atoms: _67  and  _70
REMARK   32  A    between atoms: _70  and  _71
REMARK   33  A    between atoms: _76  and  _78
REMARK   34  A    between atoms: _78  and  _79
REMARK   35  A    between atoms: _78  and  _81
REMARK   36  A    between atoms: _81  and  _82
REMARK   37  A    between atoms: _85  and  _87
REMARK   38  A    between atoms: _87  and  _88
REMARK   39  A    between atoms: _87  and  _90
REMARK   40  A    between atoms: _90  and  _91
REMARK   41  A    between atoms: _101  and  _103
REMARK   42  A    between atoms: _103  and  _104
REMARK   43  A    between atoms: _103  and  _106
REMARK   44  A    between atoms: _106  and  _107
REMARK   45  A    between atoms: _109  and  _111
REMARK   46  A    between atoms: _111  and  _112
REMARK   47  A    between atoms: _111  and  _114
REMARK   48  A    between atoms: _114  and  _115
REMARK   49  A    between atoms: _115  and  _116
REMARK   50  A    between atoms: _121  and  _123
REMARK   51  A    between atoms: _123  and  _124
REMARK   52  A    between atoms: _123  and  _126
REMARK   53  A    between atoms: _126  and  _127
REMARK   54  A    between atoms: _130  and  _132
REMARK   55  A    between atoms: _132  and  _133
REMARK   56  A    between atoms: _132  and  _135
REMARK   57  A    between atoms: _135  and  _136
REMARK   58  A    between atoms: _141  and  _143
REMARK   59  A    between atoms: _143  and  _144
REMARK   60  A    between atoms: _143  and  _146
REMARK   61  A    between atoms: _146  and  _147
REMARK   62  A    between atoms: _147  and  _148
REMARK   63  A    between atoms: _151  and  _153
REMARK   64  A    between atoms: _153  and  _154
REMARK   65  A    between atoms: _153  and  _156
REMARK   66  A    between atoms: _156  and  _157
REMARK   67  A    between atoms: _162  and  _164
REMARK   68  A    between atoms: _164  and  _165
REMARK   69  A    between atoms: _164  and  _167
REMARK   70  A    between atoms: _167  and  _168
REMARK   71  A    between atoms: _171  and  _173
REMARK   72  A    between atoms: _173  and  _174
REMARK   73  A    between atoms: _173  and  _176
REMARK   74  A    between atoms: _176  and  _177
REMARK   75  A    between atoms: _182  and  _183
REMARK   76  A    between atoms: _185  and  _187
REMARK   77  A    between atoms: _187  and  _188
REMARK   78  A    between atoms: _187  and  _190
REMARK   79  A    between atoms: _190  and  _191
REMARK   80  A    between atoms: _191  and  _192
REMARK   81  A    between atoms: _197  and  _199
REMARK   82  A    between atoms: _199  and  _200
REMARK   83  A    between atoms: _199  and  _202
REMARK   84  A    between atoms: _202  and  _203
REMARK   85  A    between atoms: _208  and  _210
REMARK   86  A    between atoms: _210  and  _211
REMARK   87  A    between atoms: _210  and  _213
REMARK   88  A    between atoms: _213  and  _214
REMARK   89  A    between atoms: _217  and  _219
REMARK   90  A    between atoms: _219  and  _220
REMARK   91  A    between atoms: _219  and  _222
REMARK   92  A    between atoms: _222  and  _223
REMARK   93  A    between atoms: _223  and  _224
REMARK   94  A    between atoms: _227  and  _229
REMARK   95  A    between atoms: _229  and  _230
REMARK   96  A    between atoms: _229  and  _232
REMARK   97  A    between atoms: _232  and  _233
REMARK   98  A    between atoms: _236  and  _238
REMARK   99  A    between atoms: _238  and  _239
REMARK  100  A    between atoms: _238  and  _241
REMARK  101  A    between atoms: _241  and  _242
REMARK  102  A    between atoms: _252  and  _254
REMARK  103  A    between atoms: _254  and  _255
REMARK  104  A    between atoms: _257  and  _259
REMARK  105  A    between atoms: _259  and  _260
REMARK  106  A    between atoms: _259  and  _262
REMARK  107  A    between atoms: _262  and  _263
REMARK  108  A    between atoms: _268  and  _269
REMARK  109  A    between atoms: _271  and  _273
REMARK  110  A    between atoms: _273  and  _274
REMARK  111  A    between atoms: _273  and  _276
REMARK  112  A    between atoms: _276  and  _277
REMARK  113  A    between atoms: _279  and  _281
REMARK  114  A    between atoms: _281  and  _282
REMARK  115  A    between atoms: _281  and  _284
REMARK  116  A    between atoms: _284  and  _285
REMARK  117  A    between atoms: _295  and  _297
REMARK  118  A    between atoms: _297  and  _298
REMARK  119  A    between atoms: _297  and  _300
REMARK  120  A    between atoms: _303  and  _305
REMARK  121  A    between atoms: _305  and  _306
REMARK  122  A    between atoms: _305  and  _308
REMARK  123  A    between atoms: _308  and  _309
REMARK  124  A    between atoms: _312  and  _314
REMARK  125  A    between atoms: _314  and  _315
REMARK  126  A    between atoms: _314  and  _317
REMARK  127  A    between atoms: _320  and  _322
REMARK  128  A    between atoms: _322  and  _323
REMARK  129  A    between atoms: _322  and  _325
REMARK  130  A    between atoms: _325  and  _326
REMARK                            x       y       z     vdW  Elec       q    Type
REMARK                         _______ _______ _______ _____ _____    ______ ____
ROOT
ATOM      1  O   HOH     1      15.728  57.657  45.288  0.00  0.00    +0.000 OA
ENDROOT
TORSDOF 0
REMARK  Name = ../refined-set-2016/1fh7/1fh7_pocket.pdb
REMARK  130 active torsions:
REMARK  status: ('A' for Active; 'I' for Inactive)
REMARK    1  A    between atoms: _1  and  _3
REMARK    2  A    between atoms: _3  and  _4
REMARK    3  A    between atoms: _7  and  _9
REMARK    4  A    between atoms: _9  and  _10
REMARK    5  A    between atoms: _9  and  _12
REMARK    6  A    between atoms: _12  and  _13
REMARK    7  A    between atoms: _16  and  _18
REMARK    8  A    between atoms: _18  and  _19
REMARK    9  A    between atoms: _22  and  _24
REMARK   10  A    between atoms: _24  and  _25
REMARK   11  A    between atoms: _24  and  _27
REMARK   12  A    between atoms: _27  and  _28
REMARK   13  A    between atoms: _28  and  _29
REMARK   14  A    between atoms: _32  and  _34
REMARK   15  A    between atoms: _34  and  _35
REMARK   16  A    between atoms: _34  and  _37
REMARK   17  A    between atoms: _37  and  _38
REMARK   18  A    between atoms: _43  and  _45
REMARK   19  A    between atoms: _45  and  _46
REMARK   20  A    between atoms: _45  and  _48
REMARK   21  A    between atoms: _48  and  _49
REMARK   22  A    between atoms: _49  and  _50
REMARK   23  A    between atoms: _50  and  _51
REMARK   24  A    between atoms: _51  and  _52
REMARK   25  A    between atoms: _56  and  _58
REMARK   26  A    between atoms: _58  and  _59
REMARK   27  A    between atoms: _58  and  _61
REMARK   28  A    between atoms: _61  and  _62
REMARK   29  A    between atoms: _65  and  _67
REMARK   30  A    between atoms: _67  and  _68
REMARK   31  A    between atoms: _67  and  _70
REMARK   32  A    between atoms: _70  and  _71
REMARK   33  A    between atoms: _76  and  _78
REMARK   34  A    between atoms: _78  and  _79
REMARK   35  A    between atoms: _78  and  _81
REMARK   36  A    between atoms: _81  and  _82
REMARK   37  A    between atoms: _85  and  _87
REMARK   38  A    between atoms: _87  and  _88
REMARK   39  A    between atoms: _87  and  _90
REMARK   40  A    between atoms: _90  and  _91
REMARK   41  A    between atoms: _101  and  _103
REMARK   42  A    between atoms: _103  and  _104
REMARK   43  A    between atoms: _103  and  _106
REMARK   44  A    between atoms: _106  and  _107
REMARK   45  A    between atoms: _109  and  _111
REMARK   46  A    between atoms: _111  and  _112
REMARK   47  A    between atoms: _111  and  _114
REMARK   48  A    between atoms: _114  and  _115
REMARK   49  A    between atoms: _115  and  _116
REMARK   50  A    between atoms: _121  and  _123
REMARK   51  A    between atoms: _123  and  _124
REMARK   52  A    between atoms: _123  and  _126
REMARK   53  A    between atoms: _126  and  _127
REMARK   54  A    between atoms: _130  and  _132
REMARK   55  A    between atoms: _132  and  _133
REMARK   56  A    between atoms: _132  and  _135
REMARK   57  A    between atoms: _135  and  _136
REMARK   58  A    between atoms: _141  and  _143
REMARK   59  A    between atoms: _143  and  _144
REMARK   60  A    between atoms: _143  and  _146
REMARK   61  A    between atoms: _146  and  _147
REMARK   62  A    between atoms: _147  and  _148
REMARK   63  A    between atoms: _151  and  _153
REMARK   64  A    between atoms: _153  and  _154
REMARK   65  A    between atoms: _153  and  _156
REMARK   66  A    between atoms: _156  and  _157
REMARK   67  A    between atoms: _162  and  _164
REMARK   68  A    between atoms: _164  and  _165
REMARK   69  A    between atoms: _164  and  _167
REMARK   70  A    between atoms: _167  and  _168
REMARK   71  A    between atoms: _171  and  _173
REMARK   72  A    between atoms: _173  and  _174
REMARK   73  A    between atoms: _173  and  _176
REMARK   74  A    between atoms: _176  and  _177
REMARK   75  A    between atoms: _182  and  _183
REMARK   76  A    between atoms: _185  and  _187
REMARK   77  A    between atoms: _187  and  _188
REMARK   78  A    between atoms: _187  and  _190
REMARK   79  A    between atoms: _190  and  _191
REMARK   80  A    between atoms: _191  and  _192
REMARK   81  A    between atoms: _197  and  _199
REMARK   82  A    between atoms: _199  and  _200
REMARK   83  A    between atoms: _199  and  _202
REMARK   84  A    between atoms: _202  and  _203
REMARK   85  A    between atoms: _208  and  _210
REMARK   86  A    between atoms: _210  and  _211
REMARK   87  A    between atoms: _210  and  _213
REMARK   88  A    between atoms: _213  and  _214
REMARK   89  A    between atoms: _217  and  _219
REMARK   90  A    between atoms: _219  and  _220
REMARK   91  A    between atoms: _219  and  _222
REMARK   92  A    between atoms: _222  and  _223
REMARK   93  A    between atoms: _223  and  _224
REMARK   94  A    between atoms: _227  and  _229
REMARK   95  A    between atoms: _229  and  _230
REMARK   96  A    between atoms: _229  and  _232
REMARK   97  A    between atoms: _232  and  _233
REMARK   98  A    between atoms: _236  and  _238
REMARK   99  A    between atoms: _238  and  _239
REMARK  100  A    between atoms: _238  and  _241
REMARK  101  A    between atoms: _241  and  _242
REMARK  102  A    between atoms: _252  and  _254
REMARK  103  A    between atoms: _254  and  _255
REMARK  104  A    between atoms: _257  and  _259
REMARK  105  A    between atoms: _259  and  _260
REMARK  106  A    between atoms: _259  and  _262
REMARK  107  A    between atoms: _262  and  _263
REMARK  108  A    between atoms: _268  and  _269
REMARK  109  A    between atoms: _271  and  _273
REMARK  110  A    between atoms: _273  and  _274
REMARK  111  A    between atoms: _273  and  _276
REMARK  112  A    between atoms: _276  and  _277
REMARK  113  A    between atoms: _279  and  _281
REMARK  114  A    between atoms: _281  and  _282
REMARK  115  A    between atoms: _281  and  _284
REMARK  116  A    between atoms: _284  and  _285
REMARK  117  A    between atoms: _295  and  _297
REMARK  118  A    between atoms: _297  and  _298
REMARK  119  A    between atoms: _297  and  _300
REMARK  120  A    between atoms: _303  and  _305
REMARK  121  A    between atoms: _305  and  _306
REMARK  122  A    between atoms: _305  and  _308
REMARK  123  A    between atoms: _308  and  _309
REMARK  124  A    between atoms: _312  and  _314
REMARK  125  A    between atoms: _314  and  _315
REMARK  126  A    between atoms: _314  and  _317
REMARK  127  A    between atoms: _320  and  _322
REMARK  128  A    between atoms: _322  and  _323
REMARK  129  A    between atoms: _322  and  _325
REMARK  130  A    between atoms: _325  and  _326
REMARK                            x       y       z     vdW  Elec       q    Type
REMARK                         _______ _______ _______ _____ _____    ______ ____
ROOT
ATOM      1  O   HOH     1      13.872  69.115  37.380  0.00  0.00    +0.000 OA
ENDROOT
TORSDOF 0
REMARK  Name = ../refined-set-2016/1fh7/1fh7_pocket.pdb
REMARK  130 active torsions:
REMARK  status: ('A' for Active; 'I' for Inactive)
REMARK    1  A    between atoms: _1  and  _3
REMARK    2  A    between atoms: _3  and  _4
REMARK    3  A    between atoms: _7  and  _9
REMARK    4  A    between atoms: _9  and  _10
REMARK    5  A    between atoms: _9  and  _12
REMARK    6  A    between atoms: _12  and  _13
REMARK    7  A    between atoms: _16  and  _18
REMARK    8  A    between atoms: _18  and  _19
REMARK    9  A    between atoms: _22  and  _24
REMARK   10  A    between atoms: _24  and  _25
REMARK   11  A    between atoms: _24  and  _27
REMARK   12  A    between atoms: _27  and  _28
REMARK   13  A    between atoms: _28  and  _29
REMARK   14  A    between atoms: _32  and  _34
REMARK   15  A    between atoms: _34  and  _35
REMARK   16  A    between atoms: _34  and  _37
REMARK   17  A    between atoms: _37  and  _38
REMARK   18  A    between atoms: _43  and  _45
REMARK   19  A    between atoms: _45  and  _46
REMARK   20  A    between atoms: _45  and  _48
REMARK   21  A    between atoms: _48  and  _49
REMARK   22  A    between atoms: _49  and  _50
REMARK   23  A    between atoms: _50  and  _51
REMARK   24  A    between atoms: _51  and  _52
REMARK   25  A    between atoms: _56  and  _58
REMARK   26  A    between atoms: _58  and  _59
REMARK   27  A    between atoms: _58  and  _61
REMARK   28  A    between atoms: _61  and  _62
REMARK   29  A    between atoms: _65  and  _67
REMARK   30  A    between atoms: _67  and  _68
REMARK   31  A    between atoms: _67  and  _70
REMARK   32  A    between atoms: _70  and  _71
REMARK   33  A    between atoms: _76  and  _78
REMARK   34  A    between atoms: _78  and  _79
REMARK   35  A    between atoms: _78  and  _81
REMARK   36  A    between atoms: _81  and  _82
REMARK   37  A    between atoms: _85  and  _87
REMARK   38  A    between atoms: _87  and  _88
REMARK   39  A    between atoms: _87  and  _90
REMARK   40  A    between atoms: _90  and  _91
REMARK   41  A    between atoms: _101  and  _103
REMARK   42  A    between atoms: _103  and  _104
REMARK   43  A    between atoms: _103  and  _106
REMARK   44  A    between atoms: _106  and  _107
REMARK   45  A    between atoms: _109  and  _111
REMARK   46  A    between atoms: _111  and  _112
REMARK   47  A    between atoms: _111  and  _114
REMARK   48  A    between atoms: _114  and  _115
REMARK   49  A    between atoms: _115  and  _116
REMARK   50  A    between atoms: _121  and  _123
REMARK   51  A    between atoms: _123  and  _124
REMARK   52  A    between atoms: _123  and  _126
REMARK   53  A    between atoms: _126  and  _127
REMARK   54  A    between atoms: _130  and  _132
REMARK   55  A    between atoms: _132  and  _133
REMARK   56  A    between atoms: _132  and  _135
REMARK   57  A    between atoms: _135  and  _136
REMARK   58  A    between atoms: _141  and  _143
REMARK   59  A    between atoms: _143  and  _144
REMARK   60  A    between atoms: _143  and  _146
REMARK   61  A    between atoms: _146  and  _147
REMARK   62  A    between atoms: _147  and  _148
REMARK   63  A    between atoms: _151  and  _153
REMARK   64  A    between atoms: _153  and  _154
REMARK   65  A    between atoms: _153  and  _156
REMARK   66  A    between atoms: _156  and  _157
REMARK   67  A    between atoms: _162  and  _164
REMARK   68  A    between atoms: _164  and  _165
REMARK   69  A    between atoms: _164  and  _167
REMARK   70  A    between atoms: _167  and  _168
REMARK   71  A    between atoms: _171  and  _173
REMARK   72  A    between atoms: _173  and  _174
REMARK   73  A    between atoms: _173  and  _176
REMARK   74  A    between atoms: _176  and  _177
REMARK   75  A    between atoms: _182  and  _183
REMARK   76  A    between atoms: _185  and  _187
REMARK   77  A    between atoms: _187  and  _188
REMARK   78  A    between atoms: _187  and  _190
REMARK   79  A    between atoms: _190  and  _191
REMARK   80  A    between atoms: _191  and  _192
REMARK   81  A    between atoms: _197  and  _199
REMARK   82  A    between atoms: _199  and  _200
REMARK   83  A    between atoms: _199  and  _202
REMARK   84  A    between atoms: _202  and  _203
REMARK   85  A    between atoms: _208  and  _210
REMARK   86  A    between atoms: _210  and  _211
REMARK   87  A    between atoms: _210  and  _213
REMARK   88  A    between atoms: _213  and  _214
REMARK   89  A    between atoms: _217  and  _219
REMARK   90  A    between atoms: _219  and  _220
REMARK   91  A    between atoms: _219  and  _222
REMARK   92  A    between atoms: _222  and  _223
REMARK   93  A    between atoms: _223  and  _224
REMARK   94  A    between atoms: _227  and  _229
REMARK   95  A    between atoms: _229  and  _230
REMARK   96  A    between atoms: _229  and  _232
REMARK   97  A    between atoms: _232  and  _233
REMARK   98  A    between atoms: _236  and  _238
REMARK   99  A    between atoms: _238  and  _239
REMARK  100  A    between atoms: _238  and  _241
REMARK  101  A    between atoms: _241  and  _242
REMARK  102  A    between atoms: _252  and  _254
REMARK  103  A    between atoms: _254  and  _255
REMARK  104  A    between atoms: _257  and  _259
REMARK  105  A    between atoms: _259  and  _260
REMARK  106  A    between atoms: _259  and  _262
REMARK  107  A    between atoms: _262  and  _263
REMARK  108  A    between atoms: _268  and  _269
REMARK  109  A    between atoms: _271  and  _273
REMARK  110  A    between atoms: _273  and  _274
REMARK  111  A    between atoms: _273  and  _276
REMARK  112  A    between atoms: _276  and  _277
REMARK  113  A    between atoms: _279  and  _281
REMARK  114  A    between atoms: _281  and  _282
REMARK  115  A    between atoms: _281  and  _284
REMARK  116  A    between atoms: _284  and  _285
REMARK  117  A    between atoms: _295  and  _297
REMARK  118  A    between atoms: _297  and  _298
REMARK  119  A    between atoms: _297  and  _300
REMARK  120  A    between atoms: _303  and  _305
REMARK  121  A    between atoms: _305  and  _306
REMARK  122  A    between atoms: _305  and  _308
REMARK  123  A    between atoms: _308  and  _309
REMARK  124  A    between atoms: _312  and  _314
REMARK  125  A    between atoms: _314  and  _315
REMARK  126  A    between atoms: _314  and  _317
REMARK  127  A    between atoms: _320  and  _322
REMARK  128  A    between atoms: _322  and  _323
REMARK  129  A    between atoms: _322  and  _325
REMARK  130  A    between atoms: _325  and  _326
REMARK                            x       y       z     vdW  Elec       q    Type
REMARK                         _______ _______ _______ _____ _____    ______ ____
ROOT
ATOM      1  O   HOH     1      13.715  61.011  44.535  0.00  0.00    +0.000 OA
ENDROOT
TORSDOF 0
REMARK  Name = ../refined-set-2016/1fh7/1fh7_pocket.pdb
REMARK  130 active torsions:
REMARK  status: ('A' for Active; 'I' for Inactive)
REMARK    1  A    between atoms: _1  and  _3
REMARK    2  A    between atoms: _3  and  _4
REMARK    3  A    between atoms: _7  and  _9
REMARK    4  A    between atoms: _9  and  _10
REMARK    5  A    between atoms: _9  and  _12
REMARK    6  A    between atoms: _12  and  _13
REMARK    7  A    between atoms: _16  and  _18
REMARK    8  A    between atoms: _18  and  _19
REMARK    9  A    between atoms: _22  and  _24
REMARK   10  A    between atoms: _24  and  _25
REMARK   11  A    between atoms: _24  and  _27
REMARK   12  A    between atoms: _27  and  _28
REMARK   13  A    between atoms: _28  and  _29
REMARK   14  A    between atoms: _32  and  _34
REMARK   15  A    between atoms: _34  and  _35
REMARK   16  A    between atoms: _34  and  _37
REMARK   17  A    between atoms: _37  and  _38
REMARK   18  A    between atoms: _43  and  _45
REMARK   19  A    between atoms: _45  and  _46
REMARK   20  A    between atoms: _45  and  _48
REMARK   21  A    between atoms: _48  and  _49
REMARK   22  A    between atoms: _49  and  _50
REMARK   23  A    between atoms: _50  and  _51
REMARK   24  A    between atoms: _51  and  _52
REMARK   25  A    between atoms: _56  and  _58
REMARK   26  A    between atoms: _58  and  _59
REMARK   27  A    between atoms: _58  and  _61
REMARK   28  A    between atoms: _61  and  _62
REMARK   29  A    between atoms: _65  and  _67
REMARK   30  A    between atoms: _67  and  _68
REMARK   31  A    between atoms: _67  and  _70
REMARK   32  A    between atoms: _70  and  _71
REMARK   33  A    between atoms: _76  and  _78
REMARK   34  A    between atoms: _78  and  _79
REMARK   35  A    between atoms: _78  and  _81
REMARK   36  A    between atoms: _81  and  _82
REMARK   37  A    between atoms: _85  and  _87
REMARK   38  A    between atoms: _87  and  _88
REMARK   39  A    between atoms: _87  and  _90
REMARK   40  A    between atoms: _90  and  _91
REMARK   41  A    between atoms: _101  and  _103
REMARK   42  A    between atoms: _103  and  _104
REMARK   43  A    between atoms: _103  and  _106
REMARK   44  A    between atoms: _106  and  _107
REMARK   45  A    between atoms: _109  and  _111
REMARK   46  A    between atoms: _111  and  _112
REMARK   47  A    between atoms: _111  and  _114
REMARK   48  A    between atoms: _114  and  _115
REMARK   49  A    between atoms: _115  and  _116
REMARK   50  A    between atoms: _121  and  _123
REMARK   51  A    between atoms: _123  and  _124
REMARK   52  A    between atoms: _123  and  _126
REMARK   53  A    between atoms: _126  and  _127
REMARK   54  A    between atoms: _130  and  _132
REMARK   55  A    between atoms: _132  and  _133
REMARK   56  A    between atoms: _132  and  _135
REMARK   57  A    between atoms: _135  and  _136
REMARK   58  A    between atoms: _141  and  _143
REMARK   59  A    between atoms: _143  and  _144
REMARK   60  A    between atoms: _143  and  _146
REMARK   61  A    between atoms: _146  and  _147
REMARK   62  A    between atoms: _147  and  _148
REMARK   63  A    between atoms: _151  and  _153
REMARK   64  A    between atoms: _153  and  _154
REMARK   65  A    between atoms: _153  and  _156
REMARK   66  A    between atoms: _156  and  _157
REMARK   67  A    between atoms: _162  and  _164
REMARK   68  A    between atoms: _164  and  _165
REMARK   69  A    between atoms: _164  and  _167
REMARK   70  A    between atoms: _167  and  _168
REMARK   71  A    between atoms: _171  and  _173
REMARK   72  A    between atoms: _173  and  _174
REMARK   73  A    between atoms: _173  and  _176
REMARK   74  A    between atoms: _176  and  _177
REMARK   75  A    between atoms: _182  and  _183
REMARK   76  A    between atoms: _185  and  _187
REMARK   77  A    between atoms: _187  and  _188
REMARK   78  A    between atoms: _187  and  _190
REMARK   79  A    between atoms: _190  and  _191
REMARK   80  A    between atoms: _191  and  _192
REMARK   81  A    between atoms: _197  and  _199
REMARK   82  A    between atoms: _199  and  _200
REMARK   83  A    between atoms: _199  and  _202
REMARK   84  A    between atoms: _202  and  _203
REMARK   85  A    between atoms: _208  and  _210
REMARK   86  A    between atoms: _210  and  _211
REMARK   87  A    between atoms: _210  and  _213
REMARK   88  A    between atoms: _213  and  _214
REMARK   89  A    between atoms: _217  and  _219
REMARK   90  A    between atoms: _219  and  _220
REMARK   91  A    between atoms: _219  and  _222
REMARK   92  A    between atoms: _222  and  _223
REMARK   93  A    between atoms: _223  and  _224
REMARK   94  A    between atoms: _227  and  _229
REMARK   95  A    between atoms: _229  and  _230
REMARK   96  A    between atoms: _229  and  _232
REMARK   97  A    between atoms: _232  and  _233
REMARK   98  A    between atoms: _236  and  _238
REMARK   99  A    between atoms: _238  and  _239
REMARK  100  A    between atoms: _238  and  _241
REMARK  101  A    between atoms: _241  and  _242
REMARK  102  A    between atoms: _252  and  _254
REMARK  103  A    between atoms: _254  and  _255
REMARK  104  A    between atoms: _257  and  _259
REMARK  105  A    between atoms: _259  and  _260
REMARK  106  A    between atoms: _259  and  _262
REMARK  107  A    between atoms: _262  and  _263
REMARK  108  A    between atoms: _268  and  _269
REMARK  109  A    between atoms: _271  and  _273
REMARK  110  A    between atoms: _273  and  _274
REMARK  111  A    between atoms: _273  and  _276
REMARK  112  A    between atoms: _276  and  _277
REMARK  113  A    between atoms: _279  and  _281
REMARK  114  A    between atoms: _281  and  _282
REMARK  115  A    between atoms: _281  and  _284
REMARK  116  A    between atoms: _284  and  _285
REMARK  117  A    between atoms: _295  and  _297
REMARK  118  A    between atoms: _297  and  _298
REMARK  119  A    between atoms: _297  and  _300
REMARK  120  A    between atoms: _303  and  _305
REMARK  121  A    between atoms: _305  and  _306
REMARK  122  A    between atoms: _305  and  _308
REMARK  123  A    between atoms: _308  and  _309
REMARK  124  A    between atoms: _312  and  _314
REMARK  125  A    between atoms: _314  and  _315
REMARK  126  A    between atoms: _314  and  _317
REMARK  127  A    between atoms: _320  and  _322
REMARK  128  A    between atoms: _322  and  _323
REMARK  129  A    between atoms: _322  and  _325
REMARK  130  A    between atoms: _325  and  _326
REMARK                            x       y       z     vdW  Elec       q    Type
REMARK                         _______ _______ _______ _____ _____    ______ ____
ROOT
ATOM      1  O   HOH     1      13.326  57.832  44.368  0.00  0.00    +0.000 OA
ENDROOT
TORSDOF 0
REMARK  Name = ../refined-set-2016/1fh7/1fh7_pocket.pdb
REMARK  130 active torsions:
REMARK  status: ('A' for Active; 'I' for Inactive)
REMARK    1  A    between atoms: _1  and  _3
REMARK    2  A    between atoms: _3  and  _4
REMARK    3  A    between atoms: _7  and  _9
REMARK    4  A    between atoms: _9  and  _10
REMARK    5  A    between atoms: _9  and  _12
REMARK    6  A    between atoms: _12  and  _13
REMARK    7  A    between atoms: _16  and  _18
REMARK    8  A    between atoms: _18  and  _19
REMARK    9  A    between atoms: _22  and  _24
REMARK   10  A    between atoms: _24  and  _25
REMARK   11  A    between atoms: _24  and  _27
REMARK   12  A    between atoms: _27  and  _28
REMARK   13  A    between atoms: _28  and  _29
REMARK   14  A    between atoms: _32  and  _34
REMARK   15  A    between atoms: _34  and  _35
REMARK   16  A    between atoms: _34  and  _37
REMARK   17  A    between atoms: _37  and  _38
REMARK   18  A    between atoms: _43  and  _45
REMARK   19  A    between atoms: _45  and  _46
REMARK   20  A    between atoms: _45  and  _48
REMARK   21  A    between atoms: _48  and  _49
REMARK   22  A    between atoms: _49  and  _50
REMARK   23  A    between atoms: _50  and  _51
REMARK   24  A    between atoms: _51  and  _52
REMARK   25  A    between atoms: _56  and  _58
REMARK   26  A    between atoms: _58  and  _59
REMARK   27  A    between atoms: _58  and  _61
REMARK   28  A    between atoms: _61  and  _62
REMARK   29  A    between atoms: _65  and  _67
REMARK   30  A    between atoms: _67  and  _68
REMARK   31  A    between atoms: _67  and  _70
REMARK   32  A    between atoms: _70  and  _71
REMARK   33  A    between atoms: _76  and  _78
REMARK   34  A    between atoms: _78  and  _79
REMARK   35  A    between atoms: _78  and  _81
REMARK   36  A    between atoms: _81  and  _82
REMARK   37  A    between atoms: _85  and  _87
REMARK   38  A    between atoms: _87  and  _88
REMARK   39  A    between atoms: _87  and  _90
REMARK   40  A    between atoms: _90  and  _91
REMARK   41  A    between atoms: _101  and  _103
REMARK   42  A    between atoms: _103  and  _104
REMARK   43  A    between atoms: _103  and  _106
REMARK   44  A    between atoms: _106  and  _107
REMARK   45  A    between atoms: _109  and  _111
REMARK   46  A    between atoms: _111  and  _112
REMARK   47  A    between atoms: _111  and  _114
REMARK   48  A    between atoms: _114  and  _115
REMARK   49  A    between atoms: _115  and  _116
REMARK   50  A    between atoms: _121  and  _123
REMARK   51  A    between atoms: _123  and  _124
REMARK   52  A    between atoms: _123  and  _126
REMARK   53  A    between atoms: _126  and  _127
REMARK   54  A    between atoms: _130  and  _132
REMARK   55  A    between atoms: _132  and  _133
REMARK   56  A    between atoms: _132  and  _135
REMARK   57  A    between atoms: _135  and  _136
REMARK   58  A    between atoms: _141  and  _143
REMARK   59  A    between atoms: _143  and  _144
REMARK   60  A    between atoms: _143  and  _146
REMARK   61  A    between atoms: _146  and  _147
REMARK   62  A    between atoms: _147  and  _148
REMARK   63  A    between atoms: _151  and  _153
REMARK   64  A    between atoms: _153  and  _154
REMARK   65  A    between atoms: _153  and  _156
REMARK   66  A    between atoms: _156  and  _157
REMARK   67  A    between atoms: _162  and  _164
REMARK   68  A    between atoms: _164  and  _165
REMARK   69  A    between atoms: _164  and  _167
REMARK   70  A    between atoms: _167  and  _168
REMARK   71  A    between atoms: _171  and  _173
REMARK   72  A    between atoms: _173  and  _174
REMARK   73  A    between atoms: _173  and  _176
REMARK   74  A    between atoms: _176  and  _177
REMARK   75  A    between atoms: _182  and  _183
REMARK   76  A    between atoms: _185  and  _187
REMARK   77  A    between atoms: _187  and  _188
REMARK   78  A    between atoms: _187  and  _190
REMARK   79  A    between atoms: _190  and  _191
REMARK   80  A    between atoms: _191  and  _192
REMARK   81  A    between atoms: _197  and  _199
REMARK   82  A    between atoms: _199  and  _200
REMARK   83  A    between atoms: _199  and  _202
REMARK   84  A    between atoms: _202  and  _203
REMARK   85  A    between atoms: _208  and  _210
REMARK   86  A    between atoms: _210  and  _211
REMARK   87  A    between atoms: _210  and  _213
REMARK   88  A    between atoms: _213  and  _214
REMARK   89  A    between atoms: _217  and  _219
REMARK   90  A    between atoms: _219  and  _220
REMARK   91  A    between atoms: _219  and  _222
REMARK   92  A    between atoms: _222  and  _223
REMARK   93  A    between atoms: _223  and  _224
REMARK   94  A    between atoms: _227  and  _229
REMARK   95  A    between atoms: _229  and  _230
REMARK   96  A    between atoms: _229  and  _232
REMARK   97  A    between atoms: _232  and  _233
REMARK   98  A    between atoms: _236  and  _238
REMARK   99  A    between atoms: _238  and  _239
REMARK  100  A    between atoms: _238  and  _241
REMARK  101  A    between atoms: _241  and  _242
REMARK  102  A    between atoms: _252  and  _254
REMARK  103  A    between atoms: _254  and  _255
REMARK  104  A    between atoms: _257  and  _259
REMARK  105  A    between atoms: _259  and  _260
REMARK  106  A    between atoms: _259  and  _262
REMARK  107  A    between atoms: _262  and  _263
REMARK  108  A    between atoms: _268  and  _269
REMARK  109  A    between atoms: _271  and  _273
REMARK  110  A    between atoms: _273  and  _274
REMARK  111  A    between atoms: _273  and  _276
REMARK  112  A    between atoms: _276  and  _277
REMARK  113  A    between atoms: _279  and  _281
REMARK  114  A    between atoms: _281  and  _282
REMARK  115  A    between atoms: _281  and  _284
REMARK  116  A    between atoms: _284  and  _285
REMARK  117  A    between atoms: _295  and  _297
REMARK  118  A    between atoms: _297  and  _298
REMARK  119  A    between atoms: _297  and  _300
REMARK  120  A    between atoms: _303  and  _305
REMARK  121  A    between atoms: _305  and  _306
REMARK  122  A    between atoms: _305  and  _308
REMARK  123  A    between atoms: _308  and  _309
REMARK  124  A    between atoms: _312  and  _314
REMARK  125  A    between atoms: _314  and  _315
REMARK  126  A    between atoms: _314  and  _317
REMARK  127  A    between atoms: _320  and  _322
REMARK  128  A    between atoms: _322  and  _323
REMARK  129  A    between atoms: _322  and  _325
REMARK  130  A    between atoms: _325  and  _326
REMARK                            x       y       z     vdW  Elec       q    Type
REMARK                         _______ _______ _______ _____ _____    ______ ____
ROOT
ATOM      1  O   HOH     1      17.020  68.018  34.827  0.00  0.00    +0.000 OA
ENDROOT
TORSDOF 0
REMARK  Name = ../refined-set-2016/1fh7/1fh7_pocket.pdb
REMARK  130 active torsions:
REMARK  status: ('A' for Active; 'I' for Inactive)
REMARK    1  A    between atoms: _1  and  _3
REMARK    2  A    between atoms: _3  and  _4
REMARK    3  A    between atoms: _7  and  _9
REMARK    4  A    between atoms: _9  and  _10
REMARK    5  A    between atoms: _9  and  _12
REMARK    6  A    between atoms: _12  and  _13
REMARK    7  A    between atoms: _16  and  _18
REMARK    8  A    between atoms: _18  and  _19
REMARK    9  A    between atoms: _22  and  _24
REMARK   10  A    between atoms: _24  and  _25
REMARK   11  A    between atoms: _24  and  _27
REMARK   12  A    between atoms: _27  and  _28
REMARK   13  A    between atoms: _28  and  _29
REMARK   14  A    between atoms: _32  and  _34
REMARK   15  A    between atoms: _34  and  _35
REMARK   16  A    between atoms: _34  and  _37
REMARK   17  A    between atoms: _37  and  _38
REMARK   18  A    between atoms: _43  and  _45
REMARK   19  A    between atoms: _45  and  _46
REMARK   20  A    between atoms: _45  and  _48
REMARK   21  A    between atoms: _48  and  _49
REMARK   22  A    between atoms: _49  and  _50
REMARK   23  A    between atoms: _50  and  _51
REMARK   24  A    between atoms: _51  and  _52
REMARK   25  A    between atoms: _56  and  _58
REMARK   26  A    between atoms: _58  and  _59
REMARK   27  A    between atoms: _58  and  _61
REMARK   28  A    between atoms: _61  and  _62
REMARK   29  A    between atoms: _65  and  _67
REMARK   30  A    between atoms: _67  and  _68
REMARK   31  A    between atoms: _67  and  _70
REMARK   32  A    between atoms: _70  and  _71
REMARK   33  A    between atoms: _76  and  _78
REMARK   34  A    between atoms: _78  and  _79
REMARK   35  A    between atoms: _78  and  _81
REMARK   36  A    between atoms: _81  and  _82
REMARK   37  A    between atoms: _85  and  _87
REMARK   38  A    between atoms: _87  and  _88
REMARK   39  A    between atoms: _87  and  _90
REMARK   40  A    between atoms: _90  and  _91
REMARK   41  A    between atoms: _101  and  _103
REMARK   42  A    between atoms: _103  and  _104
REMARK   43  A    between atoms: _103  and  _106
REMARK   44  A    between atoms: _106  and  _107
REMARK   45  A    between atoms: _109  and  _111
REMARK   46  A    between atoms: _111  and  _112
REMARK   47  A    between atoms: _111  and  _114
REMARK   48  A    between atoms: _114  and  _115
REMARK   49  A    between atoms: _115  and  _116
REMARK   50  A    between atoms: _121  and  _123
REMARK   51  A    between atoms: _123  and  _124
REMARK   52  A    between atoms: _123  and  _126
REMARK   53  A    between atoms: _126  and  _127
REMARK   54  A    between atoms: _130  and  _132
REMARK   55  A    between atoms: _132  and  _133
REMARK   56  A    between atoms: _132  and  _135
REMARK   57  A    between atoms: _135  and  _136
REMARK   58  A    between atoms: _141  and  _143
REMARK   59  A    between atoms: _143  and  _144
REMARK   60  A    between atoms: _143  and  _146
REMARK   61  A    between atoms: _146  and  _147
REMARK   62  A    between atoms: _147  and  _148
REMARK   63  A    between atoms: _151  and  _153
REMARK   64  A    between atoms: _153  and  _154
REMARK   65  A    between atoms: _153  and  _156
REMARK   66  A    between atoms: _156  and  _157
REMARK   67  A    between atoms: _162  and  _164
REMARK   68  A    between atoms: _164  and  _165
REMARK   69  A    between atoms: _164  and  _167
REMARK   70  A    between atoms: _167  and  _168
REMARK   71  A    between atoms: _171  and  _173
REMARK   72  A    between atoms: _173  and  _174
REMARK   73  A    between atoms: _173  and  _176
REMARK   74  A    between atoms: _176  and  _177
REMARK   75  A    between atoms: _182  and  _183
REMARK   76  A    between atoms: _185  and  _187
REMARK   77  A    between atoms: _187  and  _188
REMARK   78  A    between atoms: _187  and  _190
REMARK   79  A    between atoms: _190  and  _191
REMARK   80  A    between atoms: _191  and  _192
REMARK   81  A    between atoms: _197  and  _199
REMARK   82  A    between atoms: _199  and  _200
REMARK   83  A    between atoms: _199  and  _202
REMARK   84  A    between atoms: _202  and  _203
REMARK   85  A    between atoms: _208  and  _210
REMARK   86  A    between atoms: _210  and  _211
REMARK   87  A    between atoms: _210  and  _213
REMARK   88  A    between atoms: _213  and  _214
REMARK   89  A    between atoms: _217  and  _219
REMARK   90  A    between atoms: _219  and  _220
REMARK   91  A    between atoms: _219  and  _222
REMARK   92  A    between atoms: _222  and  _223
REMARK   93  A    between atoms: _223  and  _224
REMARK   94  A    between atoms: _227  and  _229
REMARK   95  A    between atoms: _229  and  _230
REMARK   96  A    between atoms: _229  and  _232
REMARK   97  A    between atoms: _232  and  _233
REMARK   98  A    between atoms: _236  and  _238
REMARK   99  A    between atoms: _238  and  _239
REMARK  100  A    between atoms: _238  and  _241
REMARK  101  A    between atoms: _241  and  _242
REMARK  102  A    between atoms: _252  and  _254
REMARK  103  A    between atoms: _254  and  _255
REMARK  104  A    between atoms: _257  and  _259
REMARK  105  A    between atoms: _259  and  _260
REMARK  106  A    between atoms: _259  and  _262
REMARK  107  A    between atoms: _262  and  _263
REMARK  108  A    between atoms: _268  and  _269
REMARK  109  A    between atoms: _271  and  _273
REMARK  110  A    between atoms: _273  and  _274
REMARK  111  A    between atoms: _273  and  _276
REMARK  112  A    between atoms: _276  and  _277
REMARK  113  A    between atoms: _279  and  _281
REMARK  114  A    between atoms: _281  and  _282
REMARK  115  A    between atoms: _281  and  _284
REMARK  116  A    between atoms: _284  and  _285
REMARK  117  A    between atoms: _295  and  _297
REMARK  118  A    between atoms: _297  and  _298
REMARK  119  A    between atoms: _297  and  _300
REMARK  120  A    between atoms: _303  and  _305
REMARK  121  A    between atoms: _305  and  _306
REMARK  122  A    between atoms: _305  and  _308
REMARK  123  A    between atoms: _308  and  _309
REMARK  124  A    between atoms: _312  and  _314
REMARK  125  A    between atoms: _314  and  _315
REMARK  126  A    between atoms: _314  and  _317
REMARK  127  A    between atoms: _320  and  _322
REMARK  128  A    between atoms: _322  and  _323
REMARK  129  A    between atoms: _322  and  _325
REMARK  130  A    between atoms: _325  and  _326
REMARK                            x       y       z     vdW  Elec       q    Type
REMARK                         _______ _______ _______ _____ _____    ______ ____
ROOT
ATOM      1  O   HOH     1      12.960  56.108  41.683  0.00  0.00    +0.000 OA
ENDROOT
TORSDOF 0
REMARK  Name = ../refined-set-2016/1fh7/1fh7_pocket.pdb
REMARK  130 active torsions:
REMARK  status: ('A' for Active; 'I' for Inactive)
REMARK    1  A    between atoms: _1  and  _3
REMARK    2  A    between atoms: _3  and  _4
REMARK    3  A    between atoms: _7  and  _9
REMARK    4  A    between atoms: _9  and  _10
REMARK    5  A    between atoms: _9  and  _12
REMARK    6  A    between atoms: _12  and  _13
REMARK    7  A    between atoms: _16  and  _18
REMARK    8  A    between atoms: _18  and  _19
REMARK    9  A    between atoms: _22  and  _24
REMARK   10  A    between atoms: _24  and  _25
REMARK   11  A    between atoms: _24  and  _27
REMARK   12  A    between atoms: _27  and  _28
REMARK   13  A    between atoms: _28  and  _29
REMARK   14  A    between atoms: _32  and  _34
REMARK   15  A    between atoms: _34  and  _35
REMARK   16  A    between atoms: _34  and  _37
REMARK   17  A    between atoms: _37  and  _38
REMARK   18  A    between atoms: _43  and  _45
REMARK   19  A    between atoms: _45  and  _46
REMARK   20  A    between atoms: _45  and  _48
REMARK   21  A    between atoms: _48  and  _49
REMARK   22  A    between atoms: _49  and  _50
REMARK   23  A    between atoms: _50  and  _51
REMARK   24  A    between atoms: _51  and  _52
REMARK   25  A    between atoms: _56  and  _58
REMARK   26  A    between atoms: _58  and  _59
REMARK   27  A    between atoms: _58  and  _61
REMARK   28  A    between atoms: _61  and  _62
REMARK   29  A    between atoms: _65  and  _67
REMARK   30  A    between atoms: _67  and  _68
REMARK   31  A    between atoms: _67  and  _70
REMARK   32  A    between atoms: _70  and  _71
REMARK   33  A    between atoms: _76  and  _78
REMARK   34  A    between atoms: _78  and  _79
REMARK   35  A    between atoms: _78  and  _81
REMARK   36  A    between atoms: _81  and  _82
REMARK   37  A    between atoms: _85  and  _87
REMARK   38  A    between atoms: _87  and  _88
REMARK   39  A    between atoms: _87  and  _90
REMARK   40  A    between atoms: _90  and  _91
REMARK   41  A    between atoms: _101  and  _103
REMARK   42  A    between atoms: _103  and  _104
REMARK   43  A    between atoms: _103  and  _106
REMARK   44  A    between atoms: _106  and  _107
REMARK   45  A    between atoms: _109  and  _111
REMARK   46  A    between atoms: _111  and  _112
REMARK   47  A    between atoms: _111  and  _114
REMARK   48  A    between atoms: _114  and  _115
REMARK   49  A    between atoms: _115  and  _116
REMARK   50  A    between atoms: _121  and  _123
REMARK   51  A    between atoms: _123  and  _124
REMARK   52  A    between atoms: _123  and  _126
REMARK   53  A    between atoms: _126  and  _127
REMARK   54  A    between atoms: _130  and  _132
REMARK   55  A    between atoms: _132  and  _133
REMARK   56  A    between atoms: _132  and  _135
REMARK   57  A    between atoms: _135  and  _136
REMARK   58  A    between atoms: _141  and  _143
REMARK   59  A    between atoms: _143  and  _144
REMARK   60  A    between atoms: _143  and  _146
REMARK   61  A    between atoms: _146  and  _147
REMARK   62  A    between atoms: _147  and  _148
REMARK   63  A    between atoms: _151  and  _153
REMARK   64  A    between atoms: _153  and  _154
REMARK   65  A    between atoms: _153  and  _156
REMARK   66  A    between atoms: _156  and  _157
REMARK   67  A    between atoms: _162  and  _164
REMARK   68  A    between atoms: _164  and  _165
REMARK   69  A    between atoms: _164  and  _167
REMARK   70  A    between atoms: _167  and  _168
REMARK   71  A    between atoms: _171  and  _173
REMARK   72  A    between atoms: _173  and  _174
REMARK   73  A    between atoms: _173  and  _176
REMARK   74  A    between atoms: _176  and  _177
REMARK   75  A    between atoms: _182  and  _183
REMARK   76  A    between atoms: _185  and  _187
REMARK   77  A    between atoms: _187  and  _188
REMARK   78  A    between atoms: _187  and  _190
REMARK   79  A    between atoms: _190  and  _191
REMARK   80  A    between atoms: _191  and  _192
REMARK   81  A    between atoms: _197  and  _199
REMARK   82  A    between atoms: _199  and  _200
REMARK   83  A    between atoms: _199  and  _202
REMARK   84  A    between atoms: _202  and  _203
REMARK   85  A    between atoms: _208  and  _210
REMARK   86  A    between atoms: _210  and  _211
REMARK   87  A    between atoms: _210  and  _213
REMARK   88  A    between atoms: _213  and  _214
REMARK   89  A    between atoms: _217  and  _219
REMARK   90  A    between atoms: _219  and  _220
REMARK   91  A    between atoms: _219  and  _222
REMARK   92  A    between atoms: _222  and  _223
REMARK   93  A    between atoms: _223  and  _224
REMARK   94  A    between atoms: _227  and  _229
REMARK   95  A    between atoms: _229  and  _230
REMARK   96  A    between atoms: _229  and  _232
REMARK   97  A    between atoms: _232  and  _233
REMARK   98  A    between atoms: _236  and  _238
REMARK   99  A    between atoms: _238  and  _239
REMARK  100  A    between atoms: _238  and  _241
REMARK  101  A    between atoms: _241  and  _242
REMARK  102  A    between atoms: _252  and  _254
REMARK  103  A    between atoms: _254  and  _255
REMARK  104  A    between atoms: _257  and  _259
REMARK  105  A    between atoms: _259  and  _260
REMARK  106  A    between atoms: _259  and  _262
REMARK  107  A    between atoms: _262  and  _263
REMARK  108  A    between atoms: _268  and  _269
REMARK  109  A    between atoms: _271  and  _273
REMARK  110  A    between atoms: _273  and  _274
REMARK  111  A    between atoms: _273  and  _276
REMARK  112  A    between atoms: _276  and  _277
REMARK  113  A    between atoms: _279  and  _281
REMARK  114  A    between atoms: _281  and  _282
REMARK  115  A    between atoms: _281  and  _284
REMARK  116  A    between atoms: _284  and  _285
REMARK  117  A    between atoms: _295  and  _297
REMARK  118  A    between atoms: _297  and  _298
REMARK  119  A    between atoms: _297  and  _300
REMARK  120  A    between atoms: _303  and  _305
REMARK  121  A    between atoms: _305  and  _306
REMARK  122  A    between atoms: _305  and  _308
REMARK  123  A    between atoms: _308  and  _309
REMARK  124  A    between atoms: _312  and  _314
REMARK  125  A    between atoms: _314  and  _315
REMARK  126  A    between atoms: _314  and  _317
REMARK  127  A    between atoms: _320  and  _322
REMARK  128  A    between atoms: _322  and  _323
REMARK  129  A    between atoms: _322  and  _325
REMARK  130  A    between atoms: _325  and  _326
REMARK                            x       y       z     vdW  Elec       q    Type
REMARK                         _______ _______ _______ _____ _____    ______ ____
ROOT
ATOM      1  O   HOH     1      13.299  60.952  36.990  0.00  0.00    +0.000 OA
ENDROOT
TORSDOF 0
REMARK  Name = ../refined-set-2016/1fh7/1fh7_pocket.pdb
REMARK  130 active torsions:
REMARK  status: ('A' for Active; 'I' for Inactive)
REMARK    1  A    between atoms: _1  and  _3
REMARK    2  A    between atoms: _3  and  _4
REMARK    3  A    between atoms: _7  and  _9
REMARK    4  A    between atoms: _9  and  _10
REMARK    5  A    between atoms: _9  and  _12
REMARK    6  A    between atoms: _12  and  _13
REMARK    7  A    between atoms: _16  and  _18
REMARK    8  A    between atoms: _18  and  _19
REMARK    9  A    between atoms: _22  and  _24
REMARK   10  A    between atoms: _24  and  _25
REMARK   11  A    between atoms: _24  and  _27
REMARK   12  A    between atoms: _27  and  _28
REMARK   13  A    between atoms: _28  and  _29
REMARK   14  A    between atoms: _32  and  _34
REMARK   15  A    between atoms: _34  and  _35
REMARK   16  A    between atoms: _34  and  _37
REMARK   17  A    between atoms: _37  and  _38
REMARK   18  A    between atoms: _43  and  _45
REMARK   19  A    between atoms: _45  and  _46
REMARK   20  A    between atoms: _45  and  _48
REMARK   21  A    between atoms: _48  and  _49
REMARK   22  A    between atoms: _49  and  _50
REMARK   23  A    between atoms: _50  and  _51
REMARK   24  A    between atoms: _51  and  _52
REMARK   25  A    between atoms: _56  and  _58
REMARK   26  A    between atoms: _58  and  _59
REMARK   27  A    between atoms: _58  and  _61
REMARK   28  A    between atoms: _61  and  _62
REMARK   29  A    between atoms: _65  and  _67
REMARK   30  A    between atoms: _67  and  _68
REMARK   31  A    between atoms: _67  and  _70
REMARK   32  A    between atoms: _70  and  _71
REMARK   33  A    between atoms: _76  and  _78
REMARK   34  A    between atoms: _78  and  _79
REMARK   35  A    between atoms: _78  and  _81
REMARK   36  A    between atoms: _81  and  _82
REMARK   37  A    between atoms: _85  and  _87
REMARK   38  A    between atoms: _87  and  _88
REMARK   39  A    between atoms: _87  and  _90
REMARK   40  A    between atoms: _90  and  _91
REMARK   41  A    between atoms: _101  and  _103
REMARK   42  A    between atoms: _103  and  _104
REMARK   43  A    between atoms: _103  and  _106
REMARK   44  A    between atoms: _106  and  _107
REMARK   45  A    between atoms: _109  and  _111
REMARK   46  A    between atoms: _111  and  _112
REMARK   47  A    between atoms: _111  and  _114
REMARK   48  A    between atoms: _114  and  _115
REMARK   49  A    between atoms: _115  and  _116
REMARK   50  A    between atoms: _121  and  _123
REMARK   51  A    between atoms: _123  and  _124
REMARK   52  A    between atoms: _123  and  _126
REMARK   53  A    between atoms: _126  and  _127
REMARK   54  A    between atoms: _130  and  _132
REMARK   55  A    between atoms: _132  and  _133
REMARK   56  A    between atoms: _132  and  _135
REMARK   57  A    between atoms: _135  and  _136
REMARK   58  A    between atoms: _141  and  _143
REMARK   59  A    between atoms: _143  and  _144
REMARK   60  A    between atoms: _143  and  _146
REMARK   61  A    between atoms: _146  and  _147
REMARK   62  A    between atoms: _147  and  _148
REMARK   63  A    between atoms: _151  and  _153
REMARK   64  A    between atoms: _153  and  _154
REMARK   65  A    between atoms: _153  and  _156
REMARK   66  A    between atoms: _156  and  _157
REMARK   67  A    between atoms: _162  and  _164
REMARK   68  A    between atoms: _164  and  _165
REMARK   69  A    between atoms: _164  and  _167
REMARK   70  A    between atoms: _167  and  _168
REMARK   71  A    between atoms: _171  and  _173
REMARK   72  A    between atoms: _173  and  _174
REMARK   73  A    between atoms: _173  and  _176
REMARK   74  A    between atoms: _176  and  _177
REMARK   75  A    between atoms: _182  and  _183
REMARK   76  A    between atoms: _185  and  _187
REMARK   77  A    between atoms: _187  and  _188
REMARK   78  A    between atoms: _187  and  _190
REMARK   79  A    between atoms: _190  and  _191
REMARK   80  A    between atoms: _191  and  _192
REMARK   81  A    between atoms: _197  and  _199
REMARK   82  A    between atoms: _199  and  _200
REMARK   83  A    between atoms: _199  and  _202
REMARK   84  A    between atoms: _202  and  _203
REMARK   85  A    between atoms: _208  and  _210
REMARK   86  A    between atoms: _210  and  _211
REMARK   87  A    between atoms: _210  and  _213
REMARK   88  A    between atoms: _213  and  _214
REMARK   89  A    between atoms: _217  and  _219
REMARK   90  A    between atoms: _219  and  _220
REMARK   91  A    between atoms: _219  and  _222
REMARK   92  A    between atoms: _222  and  _223
REMARK   93  A    between atoms: _223  and  _224
REMARK   94  A    between atoms: _227  and  _229
REMARK   95  A    between atoms: _229  and  _230
REMARK   96  A    between atoms: _229  and  _232
REMARK   97  A    between atoms: _232  and  _233
REMARK   98  A    between atoms: _236  and  _238
REMARK   99  A    between atoms: _238  and  _239
REMARK  100  A    between atoms: _238  and  _241
REMARK  101  A    between atoms: _241  and  _242
REMARK  102  A    between atoms: _252  and  _254
REMARK  103  A    between atoms: _254  and  _255
REMARK  104  A    between atoms: _257  and  _259
REMARK  105  A    between atoms: _259  and  _260
REMARK  106  A    between atoms: _259  and  _262
REMARK  107  A    between atoms: _262  and  _263
REMARK  108  A    between atoms: _268  and  _269
REMARK  109  A    between atoms: _271  and  _273
REMARK  110  A    between atoms: _273  and  _274
REMARK  111  A    between atoms: _273  and  _276
REMARK  112  A    between atoms: _276  and  _277
REMARK  113  A    between atoms: _279  and  _281
REMARK  114  A    between atoms: _281  and  _282
REMARK  115  A    between atoms: _281  and  _284
REMARK  116  A    between atoms: _284  and  _285
REMARK  117  A    between atoms: _295  and  _297
REMARK  118  A    between atoms: _297  and  _298
REMARK  119  A    between atoms: _297  and  _300
REMARK  120  A    between atoms: _303  and  _305
REMARK  121  A    between atoms: _305  and  _306
REMARK  122  A    between atoms: _305  and  _308
REMARK  123  A    between atoms: _308  and  _309
REMARK  124  A    between atoms: _312  and  _314
REMARK  125  A    between atoms: _314  and  _315
REMARK  126  A    between atoms: _314  and  _317
REMARK  127  A    between atoms: _320  and  _322
REMARK  128  A    between atoms: _322  and  _323
REMARK  129  A    between atoms: _322  and  _325
REMARK  130  A    between atoms: _325  and  _326
REMARK                            x       y       z     vdW  Elec       q    Type
REMARK                         _______ _______ _______ _____ _____    ______ ____
ROOT
ATOM      1  O   HOH     1      15.984  59.639  41.253  0.00  0.00    +0.000 OA
ENDROOT
TORSDOF 0
REMARK  Name = ../refined-set-2016/1fh7/1fh7_pocket.pdb
REMARK  130 active torsions:
REMARK  status: ('A' for Active; 'I' for Inactive)
REMARK    1  A    between atoms: _1  and  _3
REMARK    2  A    between atoms: _3  and  _4
REMARK    3  A    between atoms: _7  and  _9
REMARK    4  A    between atoms: _9  and  _10
REMARK    5  A    between atoms: _9  and  _12
REMARK    6  A    between atoms: _12  and  _13
REMARK    7  A    between atoms: _16  and  _18
REMARK    8  A    between atoms: _18  and  _19
REMARK    9  A    between atoms: _22  and  _24
REMARK   10  A    between atoms: _24  and  _25
REMARK   11  A    between atoms: _24  and  _27
REMARK   12  A    between atoms: _27  and  _28
REMARK   13  A    between atoms: _28  and  _29
REMARK   14  A    between atoms: _32  and  _34
REMARK   15  A    between atoms: _34  and  _35
REMARK   16  A    between atoms: _34  and  _37
REMARK   17  A    between atoms: _37  and  _38
REMARK   18  A    between atoms: _43  and  _45
REMARK   19  A    between atoms: _45  and  _46
REMARK   20  A    between atoms: _45  and  _48
REMARK   21  A    between atoms: _48  and  _49
REMARK   22  A    between atoms: _49  and  _50
REMARK   23  A    between atoms: _50  and  _51
REMARK   24  A    between atoms: _51  and  _52
REMARK   25  A    between atoms: _56  and  _58
REMARK   26  A    between atoms: _58  and  _59
REMARK   27  A    between atoms: _58  and  _61
REMARK   28  A    between atoms: _61  and  _62
REMARK   29  A    between atoms: _65  and  _67
REMARK   30  A    between atoms: _67  and  _68
REMARK   31  A    between atoms: _67  and  _70
REMARK   32  A    between atoms: _70  and  _71
REMARK   33  A    between atoms: _76  and  _78
REMARK   34  A    between atoms: _78  and  _79
REMARK   35  A    between atoms: _78  and  _81
REMARK   36  A    between atoms: _81  and  _82
REMARK   37  A    between atoms: _85  and  _87
REMARK   38  A    between atoms: _87  and  _88
REMARK   39  A    between atoms: _87  and  _90
REMARK   40  A    between atoms: _90  and  _91
REMARK   41  A    between atoms: _101  and  _103
REMARK   42  A    between atoms: _103  and  _104
REMARK   43  A    between atoms: _103  and  _106
REMARK   44  A    between atoms: _106  and  _107
REMARK   45  A    between atoms: _109  and  _111
REMARK   46  A    between atoms: _111  and  _112
REMARK   47  A    between atoms: _111  and  _114
REMARK   48  A    between atoms: _114  and  _115
REMARK   49  A    between atoms: _115  and  _116
REMARK   50  A    between atoms: _121  and  _123
REMARK   51  A    between atoms: _123  and  _124
REMARK   52  A    between atoms: _123  and  _126
REMARK   53  A    between atoms: _126  and  _127
REMARK   54  A    between atoms: _130  and  _132
REMARK   55  A    between atoms: _132  and  _133
REMARK   56  A    between atoms: _132  and  _135
REMARK   57  A    between atoms: _135  and  _136
REMARK   58  A    between atoms: _141  and  _143
REMARK   59  A    between atoms: _143  and  _144
REMARK   60  A    between atoms: _143  and  _146
REMARK   61  A    between atoms: _146  and  _147
REMARK   62  A    between atoms: _147  and  _148
REMARK   63  A    between atoms: _151  and  _153
REMARK   64  A    between atoms: _153  and  _154
REMARK   65  A    between atoms: _153  and  _156
REMARK   66  A    between atoms: _156  and  _157
REMARK   67  A    between atoms: _162  and  _164
REMARK   68  A    between atoms: _164  and  _165
REMARK   69  A    between atoms: _164  and  _167
REMARK   70  A    between atoms: _167  and  _168
REMARK   71  A    between atoms: _171  and  _173
REMARK   72  A    between atoms: _173  and  _174
REMARK   73  A    between atoms: _173  and  _176
REMARK   74  A    between atoms: _176  and  _177
REMARK   75  A    between atoms: _182  and  _183
REMARK   76  A    between atoms: _185  and  _187
REMARK   77  A    between atoms: _187  and  _188
REMARK   78  A    between atoms: _187  and  _190
REMARK   79  A    between atoms: _190  and  _191
REMARK   80  A    between atoms: _191  and  _192
REMARK   81  A    between atoms: _197  and  _199
REMARK   82  A    between atoms: _199  and  _200
REMARK   83  A    between atoms: _199  and  _202
REMARK   84  A    between atoms: _202  and  _203
REMARK   85  A    between atoms: _208  and  _210
REMARK   86  A    between atoms: _210  and  _211
REMARK   87  A    between atoms: _210  and  _213
REMARK   88  A    between atoms: _213  and  _214
REMARK   89  A    between atoms: _217  and  _219
REMARK   90  A    between atoms: _219  and  _220
REMARK   91  A    between atoms: _219  and  _222
REMARK   92  A    between atoms: _222  and  _223
REMARK   93  A    between atoms: _223  and  _224
REMARK   94  A    between atoms: _227  and  _229
REMARK   95  A    between atoms: _229  and  _230
REMARK   96  A    between atoms: _229  and  _232
REMARK   97  A    between atoms: _232  and  _233
REMARK   98  A    between atoms: _236  and  _238
REMARK   99  A    between atoms: _238  and  _239
REMARK  100  A    between atoms: _238  and  _241
REMARK  101  A    between atoms: _241  and  _242
REMARK  102  A    between atoms: _252  and  _254
REMARK  103  A    between atoms: _254  and  _255
REMARK  104  A    between atoms: _257  and  _259
REMARK  105  A    between atoms: _259  and  _260
REMARK  106  A    between atoms: _259  and  _262
REMARK  107  A    between atoms: _262  and  _263
REMARK  108  A    between atoms: _268  and  _269
REMARK  109  A    between atoms: _271  and  _273
REMARK  110  A    between atoms: _273  and  _274
REMARK  111  A    between atoms: _273  and  _276
REMARK  112  A    between atoms: _276  and  _277
REMARK  113  A    between atoms: _279  and  _281
REMARK  114  A    between atoms: _281  and  _282
REMARK  115  A    between atoms: _281  and  _284
REMARK  116  A    between atoms: _284  and  _285
REMARK  117  A    between atoms: _295  and  _297
REMARK  118  A    between atoms: _297  and  _298
REMARK  119  A    between atoms: _297  and  _300
REMARK  120  A    between atoms: _303  and  _305
REMARK  121  A    between atoms: _305  and  _306
REMARK  122  A    between atoms: _305  and  _308
REMARK  123  A    between atoms: _308  and  _309
REMARK  124  A    between atoms: _312  and  _314
REMARK  125  A    between atoms: _314  and  _315
REMARK  126  A    between atoms: _314  and  _317
REMARK  127  A    between atoms: _320  and  _322
REMARK  128  A    between atoms: _322  and  _323
REMARK  129  A    between atoms: _322  and  _325
REMARK  130  A    between atoms: _325  and  _326
REMARK                            x       y       z     vdW  Elec       q    Type
REMARK                         _______ _______ _______ _____ _____    ______ ____
ROOT
ATOM      1  O   HOH     1      13.286  57.227  36.540  0.00  0.00    +0.000 OA
ENDROOT
TORSDOF 0
REMARK  Name = ../refined-set-2016/1fh7/1fh7_pocket.pdb
REMARK  130 active torsions:
REMARK  status: ('A' for Active; 'I' for Inactive)
REMARK    1  A    between atoms: _1  and  _3
REMARK    2  A    between atoms: _3  and  _4
REMARK    3  A    between atoms: _7  and  _9
REMARK    4  A    between atoms: _9  and  _10
REMARK    5  A    between atoms: _9  and  _12
REMARK    6  A    between atoms: _12  and  _13
REMARK    7  A    between atoms: _16  and  _18
REMARK    8  A    between atoms: _18  and  _19
REMARK    9  A    between atoms: _22  and  _24
REMARK   10  A    between atoms: _24  and  _25
REMARK   11  A    between atoms: _24  and  _27
REMARK   12  A    between atoms: _27  and  _28
REMARK   13  A    between atoms: _28  and  _29
REMARK   14  A    between atoms: _32  and  _34
REMARK   15  A    between atoms: _34  and  _35
REMARK   16  A    between atoms: _34  and  _37
REMARK   17  A    between atoms: _37  and  _38
REMARK   18  A    between atoms: _43  and  _45
REMARK   19  A    between atoms: _45  and  _46
REMARK   20  A    between atoms: _45  and  _48
REMARK   21  A    between atoms: _48  and  _49
REMARK   22  A    between atoms: _49  and  _50
REMARK   23  A    between atoms: _50  and  _51
REMARK   24  A    between atoms: _51  and  _52
REMARK   25  A    between atoms: _56  and  _58
REMARK   26  A    between atoms: _58  and  _59
REMARK   27  A    between atoms: _58  and  _61
REMARK   28  A    between atoms: _61  and  _62
REMARK   29  A    between atoms: _65  and  _67
REMARK   30  A    between atoms: _67  and  _68
REMARK   31  A    between atoms: _67  and  _70
REMARK   32  A    between atoms: _70  and  _71
REMARK   33  A    between atoms: _76  and  _78
REMARK   34  A    between atoms: _78  and  _79
REMARK   35  A    between atoms: _78  and  _81
REMARK   36  A    between atoms: _81  and  _82
REMARK   37  A    between atoms: _85  and  _87
REMARK   38  A    between atoms: _87  and  _88
REMARK   39  A    between atoms: _87  and  _90
REMARK   40  A    between atoms: _90  and  _91
REMARK   41  A    between atoms: _101  and  _103
REMARK   42  A    between atoms: _103  and  _104
REMARK   43  A    between atoms: _103  and  _106
REMARK   44  A    between atoms: _106  and  _107
REMARK   45  A    between atoms: _109  and  _111
REMARK   46  A    between atoms: _111  and  _112
REMARK   47  A    between atoms: _111  and  _114
REMARK   48  A    between atoms: _114  and  _115
REMARK   49  A    between atoms: _115  and  _116
REMARK   50  A    between atoms: _121  and  _123
REMARK   51  A    between atoms: _123  and  _124
REMARK   52  A    between atoms: _123  and  _126
REMARK   53  A    between atoms: _126  and  _127
REMARK   54  A    between atoms: _130  and  _132
REMARK   55  A    between atoms: _132  and  _133
REMARK   56  A    between atoms: _132  and  _135
REMARK   57  A    between atoms: _135  and  _136
REMARK   58  A    between atoms: _141  and  _143
REMARK   59  A    between atoms: _143  and  _144
REMARK   60  A    between atoms: _143  and  _146
REMARK   61  A    between atoms: _146  and  _147
REMARK   62  A    between atoms: _147  and  _148
REMARK   63  A    between atoms: _151  and  _153
REMARK   64  A    between atoms: _153  and  _154
REMARK   65  A    between atoms: _153  and  _156
REMARK   66  A    between atoms: _156  and  _157
REMARK   67  A    between atoms: _162  and  _164
REMARK   68  A    between atoms: _164  and  _165
REMARK   69  A    between atoms: _164  and  _167
REMARK   70  A    between atoms: _167  and  _168
REMARK   71  A    between atoms: _171  and  _173
REMARK   72  A    between atoms: _173  and  _174
REMARK   73  A    between atoms: _173  and  _176
REMARK   74  A    between atoms: _176  and  _177
REMARK   75  A    between atoms: _182  and  _183
REMARK   76  A    between atoms: _185  and  _187
REMARK   77  A    between atoms: _187  and  _188
REMARK   78  A    between atoms: _187  and  _190
REMARK   79  A    between atoms: _190  and  _191
REMARK   80  A    between atoms: _191  and  _192
REMARK   81  A    between atoms: _197  and  _199
REMARK   82  A    between atoms: _199  and  _200
REMARK   83  A    between atoms: _199  and  _202
REMARK   84  A    between atoms: _202  and  _203
REMARK   85  A    between atoms: _208  and  _210
REMARK   86  A    between atoms: _210  and  _211
REMARK   87  A    between atoms: _210  and  _213
REMARK   88  A    between atoms: _213  and  _214
REMARK   89  A    between atoms: _217  and  _219
REMARK   90  A    between atoms: _219  and  _220
REMARK   91  A    between atoms: _219  and  _222
REMARK   92  A    between atoms: _222  and  _223
REMARK   93  A    between atoms: _223  and  _224
REMARK   94  A    between atoms: _227  and  _229
REMARK   95  A    between atoms: _229  and  _230
REMARK   96  A    between atoms: _229  and  _232
REMARK   97  A    between atoms: _232  and  _233
REMARK   98  A    between atoms: _236  and  _238
REMARK   99  A    between atoms: _238  and  _239
REMARK  100  A    between atoms: _238  and  _241
REMARK  101  A    between atoms: _241  and  _242
REMARK  102  A    between atoms: _252  and  _254
REMARK  103  A    between atoms: _254  and  _255
REMARK  104  A    between atoms: _257  and  _259
REMARK  105  A    between atoms: _259  and  _260
REMARK  106  A    between atoms: _259  and  _262
REMARK  107  A    between atoms: _262  and  _263
REMARK  108  A    between atoms: _268  and  _269
REMARK  109  A    between atoms: _271  and  _273
REMARK  110  A    between atoms: _273  and  _274
REMARK  111  A    between atoms: _273  and  _276
REMARK  112  A    between atoms: _276  and  _277
REMARK  113  A    between atoms: _279  and  _281
REMARK  114  A    between atoms: _281  and  _282
REMARK  115  A    between atoms: _281  and  _284
REMARK  116  A    between atoms: _284  and  _285
REMARK  117  A    between atoms: _295  and  _297
REMARK  118  A    between atoms: _297  and  _298
REMARK  119  A    between atoms: _297  and  _300
REMARK  120  A    between atoms: _303  and  _305
REMARK  121  A    between atoms: _305  and  _306
REMARK  122  A    between atoms: _305  and  _308
REMARK  123  A    between atoms: _308  and  _309
REMARK  124  A    between atoms: _312  and  _314
REMARK  125  A    between atoms: _314  and  _315
REMARK  126  A    between atoms: _314  and  _317
REMARK  127  A    between atoms: _320  and  _322
REMARK  128  A    between atoms: _322  and  _323
REMARK  129  A    between atoms: _322  and  _325
REMARK  130  A    between atoms: _325  and  _326
REMARK                            x       y       z     vdW  Elec       q    Type
REMARK                         _______ _______ _______ _____ _____    ______ ____
ROOT
ATOM      1  O   HOH     1      15.962  63.628  47.368  0.00  0.00    +0.000 OA
ENDROOT
TORSDOF 0
REMARK  Name = ../refined-set-2016/1fh7/1fh7_pocket.pdb
REMARK  130 active torsions:
REMARK  status: ('A' for Active; 'I' for Inactive)
REMARK    1  A    between atoms: _1  and  _3
REMARK    2  A    between atoms: _3  and  _4
REMARK    3  A    between atoms: _7  and  _9
REMARK    4  A    between atoms: _9  and  _10
REMARK    5  A    between atoms: _9  and  _12
REMARK    6  A    between atoms: _12  and  _13
REMARK    7  A    between atoms: _16  and  _18
REMARK    8  A    between atoms: _18  and  _19
REMARK    9  A    between atoms: _22  and  _24
REMARK   10  A    between atoms: _24  and  _25
REMARK   11  A    between atoms: _24  and  _27
REMARK   12  A    between atoms: _27  and  _28
REMARK   13  A    between atoms: _28  and  _29
REMARK   14  A    between atoms: _32  and  _34
REMARK   15  A    between atoms: _34  and  _35
REMARK   16  A    between atoms: _34  and  _37
REMARK   17  A    between atoms: _37  and  _38
REMARK   18  A    between atoms: _43  and  _45
REMARK   19  A    between atoms: _45  and  _46
REMARK   20  A    between atoms: _45  and  _48
REMARK   21  A    between atoms: _48  and  _49
REMARK   22  A    between atoms: _49  and  _50
REMARK   23  A    between atoms: _50  and  _51
REMARK   24  A    between atoms: _51  and  _52
REMARK   25  A    between atoms: _56  and  _58
REMARK   26  A    between atoms: _58  and  _59
REMARK   27  A    between atoms: _58  and  _61
REMARK   28  A    between atoms: _61  and  _62
REMARK   29  A    between atoms: _65  and  _67
REMARK   30  A    between atoms: _67  and  _68
REMARK   31  A    between atoms: _67  and  _70
REMARK   32  A    between atoms: _70  and  _71
REMARK   33  A    between atoms: _76  and  _78
REMARK   34  A    between atoms: _78  and  _79
REMARK   35  A    between atoms: _78  and  _81
REMARK   36  A    between atoms: _81  and  _82
REMARK   37  A    between atoms: _85  and  _87
REMARK   38  A    between atoms: _87  and  _88
REMARK   39  A    between atoms: _87  and  _90
REMARK   40  A    between atoms: _90  and  _91
REMARK   41  A    between atoms: _101  and  _103
REMARK   42  A    between atoms: _103  and  _104
REMARK   43  A    between atoms: _103  and  _106
REMARK   44  A    between atoms: _106  and  _107
REMARK   45  A    between atoms: _109  and  _111
REMARK   46  A    between atoms: _111  and  _112
REMARK   47  A    between atoms: _111  and  _114
REMARK   48  A    between atoms: _114  and  _115
REMARK   49  A    between atoms: _115  and  _116
REMARK   50  A    between atoms: _121  and  _123
REMARK   51  A    between atoms: _123  and  _124
REMARK   52  A    between atoms: _123  and  _126
REMARK   53  A    between atoms: _126  and  _127
REMARK   54  A    between atoms: _130  and  _132
REMARK   55  A    between atoms: _132  and  _133
REMARK   56  A    between atoms: _132  and  _135
REMARK   57  A    between atoms: _135  and  _136
REMARK   58  A    between atoms: _141  and  _143
REMARK   59  A    between atoms: _143  and  _144
REMARK   60  A    between atoms: _143  and  _146
REMARK   61  A    between atoms: _146  and  _147
REMARK   62  A    between atoms: _147  and  _148
REMARK   63  A    between atoms: _151  and  _153
REMARK   64  A    between atoms: _153  and  _154
REMARK   65  A    between atoms: _153  and  _156
REMARK   66  A    between atoms: _156  and  _157
REMARK   67  A    between atoms: _162  and  _164
REMARK   68  A    between atoms: _164  and  _165
REMARK   69  A    between atoms: _164  and  _167
REMARK   70  A    between atoms: _167  and  _168
REMARK   71  A    between atoms: _171  and  _173
REMARK   72  A    between atoms: _173  and  _174
REMARK   73  A    between atoms: _173  and  _176
REMARK   74  A    between atoms: _176  and  _177
REMARK   75  A    between atoms: _182  and  _183
REMARK   76  A    between atoms: _185  and  _187
REMARK   77  A    between atoms: _187  and  _188
REMARK   78  A    between atoms: _187  and  _190
REMARK   79  A    between atoms: _190  and  _191
REMARK   80  A    between atoms: _191  and  _192
REMARK   81  A    between atoms: _197  and  _199
REMARK   82  A    between atoms: _199  and  _200
REMARK   83  A    between atoms: _199  and  _202
REMARK   84  A    between atoms: _202  and  _203
REMARK   85  A    between atoms: _208  and  _210
REMARK   86  A    between atoms: _210  and  _211
REMARK   87  A    between atoms: _210  and  _213
REMARK   88  A    between atoms: _213  and  _214
REMARK   89  A    between atoms: _217  and  _219
REMARK   90  A    between atoms: _219  and  _220
REMARK   91  A    between atoms: _219  and  _222
REMARK   92  A    between atoms: _222  and  _223
REMARK   93  A    between atoms: _223  and  _224
REMARK   94  A    between atoms: _227  and  _229
REMARK   95  A    between atoms: _229  and  _230
REMARK   96  A    between atoms: _229  and  _232
REMARK   97  A    between atoms: _232  and  _233
REMARK   98  A    between atoms: _236  and  _238
REMARK   99  A    between atoms: _238  and  _239
REMARK  100  A    between atoms: _238  and  _241
REMARK  101  A    between atoms: _241  and  _242
REMARK  102  A    between atoms: _252  and  _254
REMARK  103  A    between atoms: _254  and  _255
REMARK  104  A    between atoms: _257  and  _259
REMARK  105  A    between atoms: _259  and  _260
REMARK  106  A    between atoms: _259  and  _262
REMARK  107  A    between atoms: _262  and  _263
REMARK  108  A    between atoms: _268  and  _269
REMARK  109  A    between atoms: _271  and  _273
REMARK  110  A    between atoms: _273  and  _274
REMARK  111  A    between atoms: _273  and  _276
REMARK  112  A    between atoms: _276  and  _277
REMARK  113  A    between atoms: _279  and  _281
REMARK  114  A    between atoms: _281  and  _282
REMARK  115  A    between atoms: _281  and  _284
REMARK  116  A    between atoms: _284  and  _285
REMARK  117  A    between atoms: _295  and  _297
REMARK  118  A    between atoms: _297  and  _298
REMARK  119  A    between atoms: _297  and  _300
REMARK  120  A    between atoms: _303  and  _305
REMARK  121  A    between atoms: _305  and  _306
REMARK  122  A    between atoms: _305  and  _308
REMARK  123  A    between atoms: _308  and  _309
REMARK  124  A    between atoms: _312  and  _314
REMARK  125  A    between atoms: _314  and  _315
REMARK  126  A    between atoms: _314  and  _317
REMARK  127  A    between atoms: _320  and  _322
REMARK  128  A    between atoms: _322  and  _323
REMARK  129  A    between atoms: _322  and  _325
REMARK  130  A    between atoms: _325  and  _326
REMARK                            x       y       z     vdW  Elec       q    Type
REMARK                         _______ _______ _______ _____ _____    ______ ____
ROOT
ATOM      1  O   HOH     1      20.435  67.122  32.686  0.00  0.00    +0.000 OA
ENDROOT
TORSDOF 0
REMARK  Name = ../refined-set-2016/1fh7/1fh7_pocket.pdb
REMARK  130 active torsions:
REMARK  status: ('A' for Active; 'I' for Inactive)
REMARK    1  A    between atoms: _1  and  _3
REMARK    2  A    between atoms: _3  and  _4
REMARK    3  A    between atoms: _7  and  _9
REMARK    4  A    between atoms: _9  and  _10
REMARK    5  A    between atoms: _9  and  _12
REMARK    6  A    between atoms: _12  and  _13
REMARK    7  A    between atoms: _16  and  _18
REMARK    8  A    between atoms: _18  and  _19
REMARK    9  A    between atoms: _22  and  _24
REMARK   10  A    between atoms: _24  and  _25
REMARK   11  A    between atoms: _24  and  _27
REMARK   12  A    between atoms: _27  and  _28
REMARK   13  A    between atoms: _28  and  _29
REMARK   14  A    between atoms: _32  and  _34
REMARK   15  A    between atoms: _34  and  _35
REMARK   16  A    between atoms: _34  and  _37
REMARK   17  A    between atoms: _37  and  _38
REMARK   18  A    between atoms: _43  and  _45
REMARK   19  A    between atoms: _45  and  _46
REMARK   20  A    between atoms: _45  and  _48
REMARK   21  A    between atoms: _48  and  _49
REMARK   22  A    between atoms: _49  and  _50
REMARK   23  A    between atoms: _50  and  _51
REMARK   24  A    between atoms: _51  and  _52
REMARK   25  A    between atoms: _56  and  _58
REMARK   26  A    between atoms: _58  and  _59
REMARK   27  A    between atoms: _58  and  _61
REMARK   28  A    between atoms: _61  and  _62
REMARK   29  A    between atoms: _65  and  _67
REMARK   30  A    between atoms: _67  and  _68
REMARK   31  A    between atoms: _67  and  _70
REMARK   32  A    between atoms: _70  and  _71
REMARK   33  A    between atoms: _76  and  _78
REMARK   34  A    between atoms: _78  and  _79
REMARK   35  A    between atoms: _78  and  _81
REMARK   36  A    between atoms: _81  and  _82
REMARK   37  A    between atoms: _85  and  _87
REMARK   38  A    between atoms: _87  and  _88
REMARK   39  A    between atoms: _87  and  _90
REMARK   40  A    between atoms: _90  and  _91
REMARK   41  A    between atoms: _101  and  _103
REMARK   42  A    between atoms: _103  and  _104
REMARK   43  A    between atoms: _103  and  _106
REMARK   44  A    between atoms: _106  and  _107
REMARK   45  A    between atoms: _109  and  _111
REMARK   46  A    between atoms: _111  and  _112
REMARK   47  A    between atoms: _111  and  _114
REMARK   48  A    between atoms: _114  and  _115
REMARK   49  A    between atoms: _115  and  _116
REMARK   50  A    between atoms: _121  and  _123
REMARK   51  A    between atoms: _123  and  _124
REMARK   52  A    between atoms: _123  and  _126
REMARK   53  A    between atoms: _126  and  _127
REMARK   54  A    between atoms: _130  and  _132
REMARK   55  A    between atoms: _132  and  _133
REMARK   56  A    between atoms: _132  and  _135
REMARK   57  A    between atoms: _135  and  _136
REMARK   58  A    between atoms: _141  and  _143
REMARK   59  A    between atoms: _143  and  _144
REMARK   60  A    between atoms: _143  and  _146
REMARK   61  A    between atoms: _146  and  _147
REMARK   62  A    between atoms: _147  and  _148
REMARK   63  A    between atoms: _151  and  _153
REMARK   64  A    between atoms: _153  and  _154
REMARK   65  A    between atoms: _153  and  _156
REMARK   66  A    between atoms: _156  and  _157
REMARK   67  A    between atoms: _162  and  _164
REMARK   68  A    between atoms: _164  and  _165
REMARK   69  A    between atoms: _164  and  _167
REMARK   70  A    between atoms: _167  and  _168
REMARK   71  A    between atoms: _171  and  _173
REMARK   72  A    between atoms: _173  and  _174
REMARK   73  A    between atoms: _173  and  _176
REMARK   74  A    between atoms: _176  and  _177
REMARK   75  A    between atoms: _182  and  _183
REMARK   76  A    between atoms: _185  and  _187
REMARK   77  A    between atoms: _187  and  _188
REMARK   78  A    between atoms: _187  and  _190
REMARK   79  A    between atoms: _190  and  _191
REMARK   80  A    between atoms: _191  and  _192
REMARK   81  A    between atoms: _197  and  _199
REMARK   82  A    between atoms: _199  and  _200
REMARK   83  A    between atoms: _199  and  _202
REMARK   84  A    between atoms: _202  and  _203
REMARK   85  A    between atoms: _208  and  _210
REMARK   86  A    between atoms: _210  and  _211
REMARK   87  A    between atoms: _210  and  _213
REMARK   88  A    between atoms: _213  and  _214
REMARK   89  A    between atoms: _217  and  _219
REMARK   90  A    between atoms: _219  and  _220
REMARK   91  A    between atoms: _219  and  _222
REMARK   92  A    between atoms: _222  and  _223
REMARK   93  A    between atoms: _223  and  _224
REMARK   94  A    between atoms: _227  and  _229
REMARK   95  A    between atoms: _229  and  _230
REMARK   96  A    between atoms: _229  and  _232
REMARK   97  A    between atoms: _232  and  _233
REMARK   98  A    between atoms: _236  and  _238
REMARK   99  A    between atoms: _238  and  _239
REMARK  100  A    between atoms: _238  and  _241
REMARK  101  A    between atoms: _241  and  _242
REMARK  102  A    between atoms: _252  and  _254
REMARK  103  A    between atoms: _254  and  _255
REMARK  104  A    between atoms: _257  and  _259
REMARK  105  A    between atoms: _259  and  _260
REMARK  106  A    between atoms: _259  and  _262
REMARK  107  A    between atoms: _262  and  _263
REMARK  108  A    between atoms: _268  and  _269
REMARK  109  A    between atoms: _271  and  _273
REMARK  110  A    between atoms: _273  and  _274
REMARK  111  A    between atoms: _273  and  _276
REMARK  112  A    between atoms: _276  and  _277
REMARK  113  A    between atoms: _279  and  _281
REMARK  114  A    between atoms: _281  and  _282
REMARK  115  A    between atoms: _281  and  _284
REMARK  116  A    between atoms: _284  and  _285
REMARK  117  A    between atoms: _295  and  _297
REMARK  118  A    between atoms: _297  and  _298
REMARK  119  A    between atoms: _297  and  _300
REMARK  120  A    between atoms: _303  and  _305
REMARK  121  A    between atoms: _305  and  _306
REMARK  122  A    between atoms: _305  and  _308
REMARK  123  A    between atoms: _308  and  _309
REMARK  124  A    between atoms: _312  and  _314
REMARK  125  A    between atoms: _314  and  _315
REMARK  126  A    between atoms: _314  and  _317
REMARK  127  A    between atoms: _320  and  _322
REMARK  128  A    between atoms: _322  and  _323
REMARK  129  A    between atoms: _322  and  _325
REMARK  130  A    between atoms: _325  and  _326
REMARK                            x       y       z     vdW  Elec       q    Type
REMARK                         _______ _______ _______ _____ _____    ______ ____
ROOT
ATOM      1  O   HOH     1      12.779  63.418  36.938  0.00  0.00    +0.000 OA
ENDROOT
TORSDOF 0
