REMARK  Name = ../refined-set-2016/4ymq/4ymq_pocket.pdb
REMARK  307 active torsions:
REMARK  status: ('A' for Active; 'I' for Inactive)
REMARK    1  A    between atoms: _1  and  _3
REMARK    2  A    between atoms: _3  and  _4
REMARK    3  A    between atoms: _3  and  _6
REMARK    4  A    between atoms: _6  and  _7
REMARK    5  A    between atoms: _12  and  _13
REMARK    6  A    between atoms: _15  and  _17
REMARK    7  A    between atoms: _17  and  _18
REMARK    8  A    between atoms: _17  and  _20
REMARK    9  A    between atoms: _20  and  _21
REMARK   10  A    between atoms: _24  and  _26
REMARK   11  A    between atoms: _26  and  _27
REMARK   12  A    between atoms: _26  and  _29
REMARK   13  A    between atoms: _31  and  _33
REMARK   14  A    between atoms: _33  and  _34
REMARK   15  A    between atoms: _33  and  _36
REMARK   16  A    between atoms: _36  and  _37
REMARK   17  A    between atoms: _37  and  _38
REMARK   18  A    between atoms: _43  and  _45
REMARK   19  A    between atoms: _45  and  _46
REMARK   20  A    between atoms: _45  and  _48
REMARK   21  A    between atoms: _48  and  _49
REMARK   22  A    between atoms: _52  and  _54
REMARK   23  A    between atoms: _54  and  _55
REMARK   24  A    between atoms: _54  and  _57
REMARK   25  A    between atoms: _57  and  _58
REMARK   26  A    between atoms: _58  and  _59
REMARK   27  A    between atoms: _59  and  _60
REMARK   28  A    between atoms: _69  and  _71
REMARK   29  A    between atoms: _71  and  _72
REMARK   30  A    between atoms: _71  and  _74
REMARK   31  A    between atoms: _74  and  _75
REMARK   32  A    between atoms: _78  and  _80
REMARK   33  A    between atoms: _80  and  _81
REMARK   34  A    between atoms: _80  and  _83
REMARK   35  A    between atoms: _83  and  _84
REMARK   36  A    between atoms: _87  and  _89
REMARK   37  A    between atoms: _89  and  _90
REMARK   38  A    between atoms: _89  and  _92
REMARK   39  A    between atoms: _92  and  _93
REMARK   40  A    between atoms: _99  and  _101
REMARK   41  A    between atoms: _101  and  _102
REMARK   42  A    between atoms: _101  and  _104
REMARK   43  A    between atoms: _104  and  _105
REMARK   44  A    between atoms: _105  and  _106
REMARK   45  A    between atoms: _108  and  _110
REMARK   46  A    between atoms: _110  and  _111
REMARK   47  A    between atoms: _110  and  _113
REMARK   48  A    between atoms: _113  and  _114
REMARK   49  A    between atoms: _124  and  _126
REMARK   50  A    between atoms: _126  and  _127
REMARK   51  A    between atoms: _126  and  _129
REMARK   52  A    between atoms: _129  and  _130
REMARK   53  A    between atoms: _130  and  _131
REMARK   54  A    between atoms: _134  and  _136
REMARK   55  A    between atoms: _136  and  _137
REMARK   56  A    between atoms: _136  and  _139
REMARK   57  A    between atoms: _139  and  _140
REMARK   58  A    between atoms: _140  and  _141
REMARK   59  A    between atoms: _141  and  _142
REMARK   60  A    between atoms: _151  and  _153
REMARK   61  A    between atoms: _153  and  _154
REMARK   62  A    between atoms: _153  and  _156
REMARK   63  A    between atoms: _158  and  _160
REMARK   64  A    between atoms: _160  and  _161
REMARK   65  A    between atoms: _164  and  _166
REMARK   66  A    between atoms: _166  and  _167
REMARK   67  A    between atoms: _166  and  _169
REMARK   68  A    between atoms: _169  and  _170
REMARK   69  A    between atoms: _175  and  _177
REMARK   70  A    between atoms: _177  and  _178
REMARK   71  A    between atoms: _177  and  _180
REMARK   72  A    between atoms: _180  and  _181
REMARK   73  A    between atoms: _186  and  _188
REMARK   74  A    between atoms: _188  and  _189
REMARK   75  A    between atoms: _188  and  _191
REMARK   76  A    between atoms: _191  and  _192
REMARK   77  A    between atoms: _195  and  _197
REMARK   78  A    between atoms: _197  and  _198
REMARK   79  A    between atoms: _197  and  _200
REMARK   80  A    between atoms: _200  and  _201
REMARK   81  A    between atoms: _204  and  _206
REMARK   82  A    between atoms: _206  and  _207
REMARK   83  A    between atoms: _206  and  _209
REMARK   84  A    between atoms: _209  and  _210
REMARK   85  A    between atoms: _210  and  _211
REMARK   86  A    between atoms: _214  and  _216
REMARK   87  A    between atoms: _216  and  _217
REMARK   88  A    between atoms: _220  and  _222
REMARK   89  A    between atoms: _222  and  _223
REMARK   90  A    between atoms: _222  and  _225
REMARK   91  A    between atoms: _225  and  _226
REMARK   92  A    between atoms: _229  and  _231
REMARK   93  A    between atoms: _231  and  _232
REMARK   94  A    between atoms: _231  and  _234
REMARK   95  A    between atoms: _234  and  _235
REMARK   96  A    between atoms: _240  and  _241
REMARK   97  A    between atoms: _243  and  _245
REMARK   98  A    between atoms: _245  and  _246
REMARK   99  A    between atoms: _245  and  _248
REMARK  100  A    between atoms: _251  and  _253
REMARK  101  A    between atoms: _253  and  _254
REMARK  102  A    between atoms: _253  and  _256
REMARK  103  A    between atoms: _256  and  _257
REMARK  104  A    between atoms: _257  and  _258
REMARK  105  A    between atoms: _260  and  _262
REMARK  106  A    between atoms: _262  and  _263
REMARK  107  A    between atoms: _262  and  _265
REMARK  108  A    between atoms: _268  and  _270
REMARK  109  A    between atoms: _270  and  _271
REMARK  110  A    between atoms: _270  and  _273
REMARK  111  A    between atoms: _276  and  _278
REMARK  112  A    between atoms: _278  and  _279
REMARK  113  A    between atoms: _278  and  _281
REMARK  114  A    between atoms: _281  and  _282
REMARK  115  A    between atoms: _285  and  _287
REMARK  116  A    between atoms: _287  and  _288
REMARK  117  A    between atoms: _287  and  _290
REMARK  118  A    between atoms: _293  and  _295
REMARK  119  A    between atoms: _295  and  _296
REMARK  120  A    between atoms: _295  and  _298
REMARK  121  A    between atoms: _298  and  _299
REMARK  122  A    between atoms: _299  and  _300
REMARK  123  A    between atoms: _300  and  _301
REMARK  124  A    between atoms: _310  and  _312
REMARK  125  A    between atoms: _312  and  _313
REMARK  126  A    between atoms: _312  and  _315
REMARK  127  A    between atoms: _315  and  _316
REMARK  128  A    between atoms: _316  and  _317
REMARK  129  A    between atoms: _319  and  _321
REMARK  130  A    between atoms: _321  and  _322
REMARK  131  A    between atoms: _321  and  _324
REMARK  132  A    between atoms: _326  and  _328
REMARK  133  A    between atoms: _328  and  _329
REMARK  134  A    between atoms: _328  and  _331
REMARK  135  A    between atoms: _331  and  _332
REMARK  136  A    between atoms: _332  and  _333
REMARK  137  A    between atoms: _333  and  _334
REMARK  138  A    between atoms: _343  and  _345
REMARK  139  A    between atoms: _345  and  _346
REMARK  140  A    between atoms: _349  and  _351
REMARK  141  A    between atoms: _351  and  _352
REMARK  142  A    between atoms: _351  and  _354
REMARK  143  A    between atoms: _354  and  _355
REMARK  144  A    between atoms: _360  and  _361
REMARK  145  A    between atoms: _363  and  _365
REMARK  146  A    between atoms: _365  and  _366
REMARK  147  A    between atoms: _365  and  _368
REMARK  148  A    between atoms: _368  and  _369
REMARK  149  A    between atoms: _374  and  _376
REMARK  150  A    between atoms: _376  and  _377
REMARK  151  A    between atoms: _376  and  _379
REMARK  152  A    between atoms: _379  and  _380
REMARK  153  A    between atoms: _380  and  _381
REMARK  154  A    between atoms: _381  and  _382
REMARK  155  A    between atoms: _391  and  _393
REMARK  156  A    between atoms: _393  and  _394
REMARK  157  A    between atoms: _393  and  _396
REMARK  158  A    between atoms: _396  and  _397
REMARK  159  A    between atoms: _400  and  _402
REMARK  160  A    between atoms: _402  and  _403
REMARK  161  A    between atoms: _402  and  _405
REMARK  162  A    between atoms: _408  and  _410
REMARK  163  A    between atoms: _410  and  _411
REMARK  164  A    between atoms: _410  and  _413
REMARK  165  A    between atoms: _413  and  _414
REMARK  166  A    between atoms: _420  and  _422
REMARK  167  A    between atoms: _422  and  _423
REMARK  168  A    between atoms: _422  and  _425
REMARK  169  A    between atoms: _425  and  _426
REMARK  170  A    between atoms: _432  and  _434
REMARK  171  A    between atoms: _434  and  _435
REMARK  172  A    between atoms: _434  and  _437
REMARK  173  A    between atoms: _437  and  _438
REMARK  174  A    between atoms: _438  and  _439
REMARK  175  A    between atoms: _442  and  _444
REMARK  176  A    between atoms: _444  and  _445
REMARK  177  A    between atoms: _447  and  _449
REMARK  178  A    between atoms: _449  and  _450
REMARK  179  A    between atoms: _449  and  _452
REMARK  180  A    between atoms: _452  and  _453
REMARK  181  A    between atoms: _453  and  _454
REMARK  182  A    between atoms: _454  and  _455
REMARK  183  A    between atoms: _455  and  _456
REMARK  184  A    between atoms: _460  and  _462
REMARK  185  A    between atoms: _462  and  _463
REMARK  186  A    between atoms: _462  and  _465
REMARK  187  A    between atoms: _465  and  _466
REMARK  188  A    between atoms: _471  and  _472
REMARK  189  A    between atoms: _474  and  _476
REMARK  190  A    between atoms: _476  and  _477
REMARK  191  A    between atoms: _479  and  _481
REMARK  192  A    between atoms: _481  and  _482
REMARK  193  A    between atoms: _484  and  _486
REMARK  194  A    between atoms: _486  and  _487
REMARK  195  A    between atoms: _486  and  _489
REMARK  196  A    between atoms: _489  and  _490
REMARK  197  A    between atoms: _490  and  _491
REMARK  198  A    between atoms: _493  and  _495
REMARK  199  A    between atoms: _495  and  _496
REMARK  200  A    between atoms: _495  and  _498
REMARK  201  A    between atoms: _498  and  _499
REMARK  202  A    between atoms: _502  and  _504
REMARK  203  A    between atoms: _504  and  _505
REMARK  204  A    between atoms: _504  and  _507
REMARK  205  A    between atoms: _507  and  _508
REMARK  206  A    between atoms: _514  and  _516
REMARK  207  A    between atoms: _516  and  _517
REMARK  208  A    between atoms: _516  and  _519
REMARK  209  A    between atoms: _519  and  _520
REMARK  210  A    between atoms: _523  and  _525
REMARK  211  A    between atoms: _525  and  _526
REMARK  212  A    between atoms: _525  and  _528
REMARK  213  A    between atoms: _530  and  _532
REMARK  214  A    between atoms: _532  and  _533
REMARK  215  A    between atoms: _532  and  _535
REMARK  216  A    between atoms: _535  and  _536
REMARK  217  A    between atoms: _539  and  _541
REMARK  218  A    between atoms: _541  and  _542
REMARK  219  A    between atoms: _541  and  _544
REMARK  220  A    between atoms: _544  and  _545
REMARK  221  A    between atoms: _548  and  _550
REMARK  222  A    between atoms: _550  and  _551
REMARK  223  A    between atoms: _550  and  _553
REMARK  224  A    between atoms: _553  and  _554
REMARK  225  A    between atoms: _556  and  _558
REMARK  226  A    between atoms: _558  and  _559
REMARK  227  A    between atoms: _558  and  _561
REMARK  228  A    between atoms: _561  and  _562
REMARK  229  A    between atoms: _564  and  _566
REMARK  230  A    between atoms: _566  and  _567
REMARK  231  A    between atoms: _566  and  _569
REMARK  232  A    between atoms: _569  and  _570
REMARK  233  A    between atoms: _573  and  _575
REMARK  234  A    between atoms: _575  and  _576
REMARK  235  A    between atoms: _575  and  _578
REMARK  236  A    between atoms: _578  and  _579
REMARK  237  A    between atoms: _585  and  _587
REMARK  238  A    between atoms: _587  and  _588
REMARK  239  A    between atoms: _587  and  _590
REMARK  240  A    between atoms: _590  and  _591
REMARK  241  A    between atoms: _594  and  _596
REMARK  242  A    between atoms: _596  and  _597
REMARK  243  A    between atoms: _596  and  _599
REMARK  244  A    between atoms: _599  and  _600
REMARK  245  A    between atoms: _606  and  _608
REMARK  246  A    between atoms: _608  and  _609
REMARK  247  A    between atoms: _608  and  _611
REMARK  248  A    between atoms: _611  and  _612
REMARK  249  A    between atoms: _614  and  _616
REMARK  250  A    between atoms: _616  and  _617
REMARK  251  A    between atoms: _616  and  _619
REMARK  252  A    between atoms: _619  and  _620
REMARK  253  A    between atoms: _625  and  _627
REMARK  254  A    between atoms: _627  and  _628
REMARK  255  A    between atoms: _627  and  _630
REMARK  256  A    between atoms: _630  and  _631
REMARK  257  A    between atoms: _633  and  _635
REMARK  258  A    between atoms: _635  and  _636
REMARK  259  A    between atoms: _635  and  _638
REMARK  260  A    between atoms: _638  and  _639
REMARK  261  A    between atoms: _639  and  _640
REMARK  262  A    between atoms: _643  and  _645
REMARK  263  A    between atoms: _645  and  _646
REMARK  264  A    between atoms: _645  and  _648
REMARK  265  A    between atoms: _648  and  _649
REMARK  266  A    between atoms: _652  and  _654
REMARK  267  A    between atoms: _654  and  _655
REMARK  268  A    between atoms: _654  and  _657
REMARK  269  A    between atoms: _657  and  _658
REMARK  270  A    between atoms: _661  and  _663
REMARK  271  A    between atoms: _663  and  _664
REMARK  272  A    between atoms: _663  and  _666
REMARK  273  A    between atoms: _668  and  _670
REMARK  274  A    between atoms: _670  and  _671
REMARK  275  A    between atoms: _670  and  _673
REMARK  276  A    between atoms: _673  and  _674
REMARK  277  A    between atoms: _674  and  _675
REMARK  278  A    between atoms: _680  and  _682
REMARK  279  A    between atoms: _682  and  _683
REMARK  280  A    between atoms: _682  and  _685
REMARK  281  A    between atoms: _685  and  _686
REMARK  282  A    between atoms: _691  and  _693
REMARK  283  A    between atoms: _693  and  _694
REMARK  284  A    between atoms: _693  and  _696
REMARK  285  A    between atoms: _699  and  _701
REMARK  286  A    between atoms: _701  and  _702
REMARK  287  A    between atoms: _701  and  _704
REMARK  288  A    between atoms: _704  and  _705
REMARK  289  A    between atoms: _705  and  _706
REMARK  290  A    between atoms: _706  and  _707
REMARK  291  A    between atoms: _716  and  _718
REMARK  292  A    between atoms: _718  and  _719
REMARK  293  A    between atoms: _718  and  _721
REMARK  294  A    between atoms: _721  and  _722
REMARK  295  A    between atoms: _725  and  _727
REMARK  296  A    between atoms: _727  and  _728
REMARK  297  A    between atoms: _727  and  _730
REMARK  298  A    between atoms: _730  and  _731
REMARK  299  A    between atoms: _737  and  _739
REMARK  300  A    between atoms: _739  and  _740
REMARK  301  A    between atoms: _739  and  _742
REMARK  302  A    between atoms: _742  and  _743
REMARK  303  A    between atoms: _748  and  _749
REMARK  304  A    between atoms: _751  and  _753
REMARK  305  A    between atoms: _753  and  _754
REMARK  306  A    between atoms: _753  and  _756
REMARK  307  A    between atoms: _756  and  _757
REMARK                            x       y       z     vdW  Elec       q    Type
REMARK                         _______ _______ _______ _____ _____    ______ ____
ROOT
ATOM      1  CG  TYR A   1       9.075  19.104  20.341  0.00  0.00    -0.020 A 
ATOM      2  CD2 TYR A   1       9.816  20.277  20.373  0.00  0.00    -0.001 A 
ATOM      3  CE2 TYR A   1       9.218  21.498  20.189  0.00  0.00    +0.036 A 
ATOM      4  CZ  TYR A   1       7.862  21.556  19.962  0.00  0.00    +0.134 A 
ATOM      5  CE1 TYR A   1       7.106  20.411  19.914  0.00  0.00    +0.036 A 
ATOM      6  CD1 TYR A   1       7.713  19.195  20.105  0.00  0.00    -0.001 A 
ENDROOT
BRANCH   4   7
ATOM      7  OH  TYR A   1       7.254  22.767  19.780  0.00  0.00    -0.506 OA
ATOM      8  HH  TYR A   1       6.285  22.629  19.630  0.00  0.00    +0.292 HD
ENDBRANCH   4   7
BRANCH   1   9
ATOM      9  CB  TYR A   1       9.736  17.767  20.522  0.00  0.00    +0.051 C 
BRANCH   9  10
ATOM     10  CA  TYR A   1       9.946  17.040  19.199  0.00  0.00    +0.137 C 
BRANCH  10  11
ATOM     11  N   TYR A   1      10.837  15.904  19.387  0.00  0.00    -0.239 NA
ATOM     12  H   TYR A   1      11.349  15.792  20.285  0.00  0.00    +0.142 HD
ENDBRANCH  10  11
BRANCH  10  13
ATOM     13  C   TYR A   1      10.477  17.996  18.135  0.00  0.00    +0.224 C 
ATOM     14  O   TYR A   1       9.712  18.479  17.291  0.00  0.00    -0.287 OA
ENDBRANCH  10  13
ENDBRANCH   9  10
ENDBRANCH   1   9
TORSDOF 5
REMARK  Name = ../refined-set-2016/4ymq/4ymq_pocket.pdb
REMARK  307 active torsions:
REMARK  status: ('A' for Active; 'I' for Inactive)
REMARK    1  A    between atoms: _1  and  _3
REMARK    2  A    between atoms: _3  and  _4
REMARK    3  A    between atoms: _3  and  _6
REMARK    4  A    between atoms: _6  and  _7
REMARK    5  A    between atoms: _12  and  _13
REMARK    6  A    between atoms: _15  and  _17
REMARK    7  A    between atoms: _17  and  _18
REMARK    8  A    between atoms: _17  and  _20
REMARK    9  A    between atoms: _20  and  _21
REMARK   10  A    between atoms: _24  and  _26
REMARK   11  A    between atoms: _26  and  _27
REMARK   12  A    between atoms: _26  and  _29
REMARK   13  A    between atoms: _31  and  _33
REMARK   14  A    between atoms: _33  and  _34
REMARK   15  A    between atoms: _33  and  _36
REMARK   16  A    between atoms: _36  and  _37
REMARK   17  A    between atoms: _37  and  _38
REMARK   18  A    between atoms: _43  and  _45
REMARK   19  A    between atoms: _45  and  _46
REMARK   20  A    between atoms: _45  and  _48
REMARK   21  A    between atoms: _48  and  _49
REMARK   22  A    between atoms: _52  and  _54
REMARK   23  A    between atoms: _54  and  _55
REMARK   24  A    between atoms: _54  and  _57
REMARK   25  A    between atoms: _57  and  _58
REMARK   26  A    between atoms: _58  and  _59
REMARK   27  A    between atoms: _59  and  _60
REMARK   28  A    between atoms: _69  and  _71
REMARK   29  A    between atoms: _71  and  _72
REMARK   30  A    between atoms: _71  and  _74
REMARK   31  A    between atoms: _74  and  _75
REMARK   32  A    between atoms: _78  and  _80
REMARK   33  A    between atoms: _80  and  _81
REMARK   34  A    between atoms: _80  and  _83
REMARK   35  A    between atoms: _83  and  _84
REMARK   36  A    between atoms: _87  and  _89
REMARK   37  A    between atoms: _89  and  _90
REMARK   38  A    between atoms: _89  and  _92
REMARK   39  A    between atoms: _92  and  _93
REMARK   40  A    between atoms: _99  and  _101
REMARK   41  A    between atoms: _101  and  _102
REMARK   42  A    between atoms: _101  and  _104
REMARK   43  A    between atoms: _104  and  _105
REMARK   44  A    between atoms: _105  and  _106
REMARK   45  A    between atoms: _108  and  _110
REMARK   46  A    between atoms: _110  and  _111
REMARK   47  A    between atoms: _110  and  _113
REMARK   48  A    between atoms: _113  and  _114
REMARK   49  A    between atoms: _124  and  _126
REMARK   50  A    between atoms: _126  and  _127
REMARK   51  A    between atoms: _126  and  _129
REMARK   52  A    between atoms: _129  and  _130
REMARK   53  A    between atoms: _130  and  _131
REMARK   54  A    between atoms: _134  and  _136
REMARK   55  A    between atoms: _136  and  _137
REMARK   56  A    between atoms: _136  and  _139
REMARK   57  A    between atoms: _139  and  _140
REMARK   58  A    between atoms: _140  and  _141
REMARK   59  A    between atoms: _141  and  _142
REMARK   60  A    between atoms: _151  and  _153
REMARK   61  A    between atoms: _153  and  _154
REMARK   62  A    between atoms: _153  and  _156
REMARK   63  A    between atoms: _158  and  _160
REMARK   64  A    between atoms: _160  and  _161
REMARK   65  A    between atoms: _164  and  _166
REMARK   66  A    between atoms: _166  and  _167
REMARK   67  A    between atoms: _166  and  _169
REMARK   68  A    between atoms: _169  and  _170
REMARK   69  A    between atoms: _175  and  _177
REMARK   70  A    between atoms: _177  and  _178
REMARK   71  A    between atoms: _177  and  _180
REMARK   72  A    between atoms: _180  and  _181
REMARK   73  A    between atoms: _186  and  _188
REMARK   74  A    between atoms: _188  and  _189
REMARK   75  A    between atoms: _188  and  _191
REMARK   76  A    between atoms: _191  and  _192
REMARK   77  A    between atoms: _195  and  _197
REMARK   78  A    between atoms: _197  and  _198
REMARK   79  A    between atoms: _197  and  _200
REMARK   80  A    between atoms: _200  and  _201
REMARK   81  A    between atoms: _204  and  _206
REMARK   82  A    between atoms: _206  and  _207
REMARK   83  A    between atoms: _206  and  _209
REMARK   84  A    between atoms: _209  and  _210
REMARK   85  A    between atoms: _210  and  _211
REMARK   86  A    between atoms: _214  and  _216
REMARK   87  A    between atoms: _216  and  _217
REMARK   88  A    between atoms: _220  and  _222
REMARK   89  A    between atoms: _222  and  _223
REMARK   90  A    between atoms: _222  and  _225
REMARK   91  A    between atoms: _225  and  _226
REMARK   92  A    between atoms: _229  and  _231
REMARK   93  A    between atoms: _231  and  _232
REMARK   94  A    between atoms: _231  and  _234
REMARK   95  A    between atoms: _234  and  _235
REMARK   96  A    between atoms: _240  and  _241
REMARK   97  A    between atoms: _243  and  _245
REMARK   98  A    between atoms: _245  and  _246
REMARK   99  A    between atoms: _245  and  _248
REMARK  100  A    between atoms: _251  and  _253
REMARK  101  A    between atoms: _253  and  _254
REMARK  102  A    between atoms: _253  and  _256
REMARK  103  A    between atoms: _256  and  _257
REMARK  104  A    between atoms: _257  and  _258
REMARK  105  A    between atoms: _260  and  _262
REMARK  106  A    between atoms: _262  and  _263
REMARK  107  A    between atoms: _262  and  _265
REMARK  108  A    between atoms: _268  and  _270
REMARK  109  A    between atoms: _270  and  _271
REMARK  110  A    between atoms: _270  and  _273
REMARK  111  A    between atoms: _276  and  _278
REMARK  112  A    between atoms: _278  and  _279
REMARK  113  A    between atoms: _278  and  _281
REMARK  114  A    between atoms: _281  and  _282
REMARK  115  A    between atoms: _285  and  _287
REMARK  116  A    between atoms: _287  and  _288
REMARK  117  A    between atoms: _287  and  _290
REMARK  118  A    between atoms: _293  and  _295
REMARK  119  A    between atoms: _295  and  _296
REMARK  120  A    between atoms: _295  and  _298
REMARK  121  A    between atoms: _298  and  _299
REMARK  122  A    between atoms: _299  and  _300
REMARK  123  A    between atoms: _300  and  _301
REMARK  124  A    between atoms: _310  and  _312
REMARK  125  A    between atoms: _312  and  _313
REMARK  126  A    between atoms: _312  and  _315
REMARK  127  A    between atoms: _315  and  _316
REMARK  128  A    between atoms: _316  and  _317
REMARK  129  A    between atoms: _319  and  _321
REMARK  130  A    between atoms: _321  and  _322
REMARK  131  A    between atoms: _321  and  _324
REMARK  132  A    between atoms: _326  and  _328
REMARK  133  A    between atoms: _328  and  _329
REMARK  134  A    between atoms: _328  and  _331
REMARK  135  A    between atoms: _331  and  _332
REMARK  136  A    between atoms: _332  and  _333
REMARK  137  A    between atoms: _333  and  _334
REMARK  138  A    between atoms: _343  and  _345
REMARK  139  A    between atoms: _345  and  _346
REMARK  140  A    between atoms: _349  and  _351
REMARK  141  A    between atoms: _351  and  _352
REMARK  142  A    between atoms: _351  and  _354
REMARK  143  A    between atoms: _354  and  _355
REMARK  144  A    between atoms: _360  and  _361
REMARK  145  A    between atoms: _363  and  _365
REMARK  146  A    between atoms: _365  and  _366
REMARK  147  A    between atoms: _365  and  _368
REMARK  148  A    between atoms: _368  and  _369
REMARK  149  A    between atoms: _374  and  _376
REMARK  150  A    between atoms: _376  and  _377
REMARK  151  A    between atoms: _376  and  _379
REMARK  152  A    between atoms: _379  and  _380
REMARK  153  A    between atoms: _380  and  _381
REMARK  154  A    between atoms: _381  and  _382
REMARK  155  A    between atoms: _391  and  _393
REMARK  156  A    between atoms: _393  and  _394
REMARK  157  A    between atoms: _393  and  _396
REMARK  158  A    between atoms: _396  and  _397
REMARK  159  A    between atoms: _400  and  _402
REMARK  160  A    between atoms: _402  and  _403
REMARK  161  A    between atoms: _402  and  _405
REMARK  162  A    between atoms: _408  and  _410
REMARK  163  A    between atoms: _410  and  _411
REMARK  164  A    between atoms: _410  and  _413
REMARK  165  A    between atoms: _413  and  _414
REMARK  166  A    between atoms: _420  and  _422
REMARK  167  A    between atoms: _422  and  _423
REMARK  168  A    between atoms: _422  and  _425
REMARK  169  A    between atoms: _425  and  _426
REMARK  170  A    between atoms: _432  and  _434
REMARK  171  A    between atoms: _434  and  _435
REMARK  172  A    between atoms: _434  and  _437
REMARK  173  A    between atoms: _437  and  _438
REMARK  174  A    between atoms: _438  and  _439
REMARK  175  A    between atoms: _442  and  _444
REMARK  176  A    between atoms: _444  and  _445
REMARK  177  A    between atoms: _447  and  _449
REMARK  178  A    between atoms: _449  and  _450
REMARK  179  A    between atoms: _449  and  _452
REMARK  180  A    between atoms: _452  and  _453
REMARK  181  A    between atoms: _453  and  _454
REMARK  182  A    between atoms: _454  and  _455
REMARK  183  A    between atoms: _455  and  _456
REMARK  184  A    between atoms: _460  and  _462
REMARK  185  A    between atoms: _462  and  _463
REMARK  186  A    between atoms: _462  and  _465
REMARK  187  A    between atoms: _465  and  _466
REMARK  188  A    between atoms: _471  and  _472
REMARK  189  A    between atoms: _474  and  _476
REMARK  190  A    between atoms: _476  and  _477
REMARK  191  A    between atoms: _479  and  _481
REMARK  192  A    between atoms: _481  and  _482
REMARK  193  A    between atoms: _484  and  _486
REMARK  194  A    between atoms: _486  and  _487
REMARK  195  A    between atoms: _486  and  _489
REMARK  196  A    between atoms: _489  and  _490
REMARK  197  A    between atoms: _490  and  _491
REMARK  198  A    between atoms: _493  and  _495
REMARK  199  A    between atoms: _495  and  _496
REMARK  200  A    between atoms: _495  and  _498
REMARK  201  A    between atoms: _498  and  _499
REMARK  202  A    between atoms: _502  and  _504
REMARK  203  A    between atoms: _504  and  _505
REMARK  204  A    between atoms: _504  and  _507
REMARK  205  A    between atoms: _507  and  _508
REMARK  206  A    between atoms: _514  and  _516
REMARK  207  A    between atoms: _516  and  _517
REMARK  208  A    between atoms: _516  and  _519
REMARK  209  A    between atoms: _519  and  _520
REMARK  210  A    between atoms: _523  and  _525
REMARK  211  A    between atoms: _525  and  _526
REMARK  212  A    between atoms: _525  and  _528
REMARK  213  A    between atoms: _530  and  _532
REMARK  214  A    between atoms: _532  and  _533
REMARK  215  A    between atoms: _532  and  _535
REMARK  216  A    between atoms: _535  and  _536
REMARK  217  A    between atoms: _539  and  _541
REMARK  218  A    between atoms: _541  and  _542
REMARK  219  A    between atoms: _541  and  _544
REMARK  220  A    between atoms: _544  and  _545
REMARK  221  A    between atoms: _548  and  _550
REMARK  222  A    between atoms: _550  and  _551
REMARK  223  A    between atoms: _550  and  _553
REMARK  224  A    between atoms: _553  and  _554
REMARK  225  A    between atoms: _556  and  _558
REMARK  226  A    between atoms: _558  and  _559
REMARK  227  A    between atoms: _558  and  _561
REMARK  228  A    between atoms: _561  and  _562
REMARK  229  A    between atoms: _564  and  _566
REMARK  230  A    between atoms: _566  and  _567
REMARK  231  A    between atoms: _566  and  _569
REMARK  232  A    between atoms: _569  and  _570
REMARK  233  A    between atoms: _573  and  _575
REMARK  234  A    between atoms: _575  and  _576
REMARK  235  A    between atoms: _575  and  _578
REMARK  236  A    between atoms: _578  and  _579
REMARK  237  A    between atoms: _585  and  _587
REMARK  238  A    between atoms: _587  and  _588
REMARK  239  A    between atoms: _587  and  _590
REMARK  240  A    between atoms: _590  and  _591
REMARK  241  A    between atoms: _594  and  _596
REMARK  242  A    between atoms: _596  and  _597
REMARK  243  A    between atoms: _596  and  _599
REMARK  244  A    between atoms: _599  and  _600
REMARK  245  A    between atoms: _606  and  _608
REMARK  246  A    between atoms: _608  and  _609
REMARK  247  A    between atoms: _608  and  _611
REMARK  248  A    between atoms: _611  and  _612
REMARK  249  A    between atoms: _614  and  _616
REMARK  250  A    between atoms: _616  and  _617
REMARK  251  A    between atoms: _616  and  _619
REMARK  252  A    between atoms: _619  and  _620
REMARK  253  A    between atoms: _625  and  _627
REMARK  254  A    between atoms: _627  and  _628
REMARK  255  A    between atoms: _627  and  _630
REMARK  256  A    between atoms: _630  and  _631
REMARK  257  A    between atoms: _633  and  _635
REMARK  258  A    between atoms: _635  and  _636
REMARK  259  A    between atoms: _635  and  _638
REMARK  260  A    between atoms: _638  and  _639
REMARK  261  A    between atoms: _639  and  _640
REMARK  262  A    between atoms: _643  and  _645
REMARK  263  A    between atoms: _645  and  _646
REMARK  264  A    between atoms: _645  and  _648
REMARK  265  A    between atoms: _648  and  _649
REMARK  266  A    between atoms: _652  and  _654
REMARK  267  A    between atoms: _654  and  _655
REMARK  268  A    between atoms: _654  and  _657
REMARK  269  A    between atoms: _657  and  _658
REMARK  270  A    between atoms: _661  and  _663
REMARK  271  A    between atoms: _663  and  _664
REMARK  272  A    between atoms: _663  and  _666
REMARK  273  A    between atoms: _668  and  _670
REMARK  274  A    between atoms: _670  and  _671
REMARK  275  A    between atoms: _670  and  _673
REMARK  276  A    between atoms: _673  and  _674
REMARK  277  A    between atoms: _674  and  _675
REMARK  278  A    between atoms: _680  and  _682
REMARK  279  A    between atoms: _682  and  _683
REMARK  280  A    between atoms: _682  and  _685
REMARK  281  A    between atoms: _685  and  _686
REMARK  282  A    between atoms: _691  and  _693
REMARK  283  A    between atoms: _693  and  _694
REMARK  284  A    between atoms: _693  and  _696
REMARK  285  A    between atoms: _699  and  _701
REMARK  286  A    between atoms: _701  and  _702
REMARK  287  A    between atoms: _701  and  _704
REMARK  288  A    between atoms: _704  and  _705
REMARK  289  A    between atoms: _705  and  _706
REMARK  290  A    between atoms: _706  and  _707
REMARK  291  A    between atoms: _716  and  _718
REMARK  292  A    between atoms: _718  and  _719
REMARK  293  A    between atoms: _718  and  _721
REMARK  294  A    between atoms: _721  and  _722
REMARK  295  A    between atoms: _725  and  _727
REMARK  296  A    between atoms: _727  and  _728
REMARK  297  A    between atoms: _727  and  _730
REMARK  298  A    between atoms: _730  and  _731
REMARK  299  A    between atoms: _737  and  _739
REMARK  300  A    between atoms: _739  and  _740
REMARK  301  A    between atoms: _739  and  _742
REMARK  302  A    between atoms: _742  and  _743
REMARK  303  A    between atoms: _748  and  _749
REMARK  304  A    between atoms: _751  and  _753
REMARK  305  A    between atoms: _753  and  _754
REMARK  306  A    between atoms: _753  and  _756
REMARK  307  A    between atoms: _756  and  _757
REMARK                            x       y       z     vdW  Elec       q    Type
REMARK                         _______ _______ _______ _____ _____    ______ ____
ROOT
ATOM      1  CA  LEU A   4       6.312  24.972  12.340  0.00  0.00    +0.149 C 
ENDROOT
BRANCH   1   2
ATOM      2  C   LEU A   4       7.501  25.354  13.208  0.00  0.00    +0.241 C 
ATOM      3  O   LEU A   4       7.475  25.147  14.425  0.00  0.00    -0.273 OA
ATOM      4  N   ARG A   5       8.536  25.904  12.581  0.00  0.00    -0.297 N 
ATOM      5  H   ARG A   5       8.511  26.010  11.547  0.00  0.00    +0.150 HD
BRANCH   4   6
ATOM      6  CA  ARG A   5       9.703  26.360  13.320  0.00  0.00    +0.149 C 
BRANCH   6   7
ATOM      7  C   ARG A   5       9.342  27.578  14.160  0.00  0.00    +0.241 C 
ATOM      8  N   LEU A   6       9.772  27.565  15.427  0.00  0.00    -0.298 N 
ATOM      9  H   LEU A   6      10.346  26.767  15.767  0.00  0.00    +0.150 HD
ATOM     10  O   ARG A   5       8.691  28.511  13.680  0.00  0.00    -0.273 OA
BRANCH   8  11
ATOM     11  CA  LEU A   6       9.444  28.658  16.338  0.00  0.00    +0.137 C 
BRANCH  11  12
ATOM     12  C   LEU A   6       9.903  30.008  15.795  0.00  0.00    +0.227 C 
ATOM     13  O   LEU A   6       9.145  30.985  15.828  0.00  0.00    -0.286 OA
ENDBRANCH  11  12
BRANCH  11  14
ATOM     14  CB  LEU A   6      10.047  28.395  17.716  0.00  0.00    +0.028 C 
BRANCH  14  15
ATOM     15  CG  LEU A   6       9.843  29.512  18.739  0.00  0.00    +0.002 C 
ATOM     16  CD2 LEU A   6      10.529  29.142  20.042  0.00  0.00    +0.000 C 
ATOM     17  CD1 LEU A   6       8.363  29.782  18.968  0.00  0.00    +0.000 C 
ENDBRANCH  14  15
ENDBRANCH  11  14
ENDBRANCH   8  11
ENDBRANCH   6   7
BRANCH   6  18
ATOM     18  CB  ARG A   5      10.822  26.723  12.346  0.00  0.00    +0.033 C 
BRANCH  18  19
ATOM     19  CG  ARG A   5      12.085  25.896  12.514  0.00  0.00    +0.045 C 
BRANCH  19  20
ATOM     20  CD  ARG A   5      13.117  26.193  11.427  0.00  0.00    +0.174 C 
BRANCH  20  21
ATOM     21  NE  ARG A   5      13.358  27.623  11.235  0.00  0.00    -0.265 N 
ATOM     22  CZ  ARG A   5      14.060  28.388  12.066  0.00  0.00    +0.342 C 
ATOM     23  NH2 ARG A   5      14.587  27.872  13.169  0.00  0.00    -0.292 N 
ATOM     24 HH21 ARG A   5      15.135  28.475  13.815  0.00  0.00    +0.255 HD
ATOM     25 HH22 ARG A   5      14.452  26.864  13.388  0.00  0.00    +0.255 HD
ATOM     26  NH1 ARG A   5      14.229  29.676  11.798  0.00  0.00    -0.292 N 
ATOM     27 HH11 ARG A   5      14.778  30.275  12.448  0.00  0.00    +0.255 HD
ATOM     28 HH12 ARG A   5      13.813  30.087  10.938  0.00  0.00    +0.255 HD
ATOM     29  HE  ARG A   5      12.952  28.073  10.390  0.00  0.00    +0.259 HD
ENDBRANCH  20  21
ENDBRANCH  19  20
ENDBRANCH  18  19
ENDBRANCH   6  18
ENDBRANCH   4   6
ENDBRANCH   1   2
BRANCH   1  31
ATOM     30  C   GLN A   3       6.372  22.633  11.609  0.00  0.00    +0.241 C 
ATOM     31  N   LEU A   4       6.052  23.550  12.516  0.00  0.00    -0.297 N 
ATOM     32  H   LEU A   4       5.593  23.237  13.395  0.00  0.00    +0.150 HD
ATOM     33  O   GLN A   3       6.879  22.922  10.522  0.00  0.00    -0.273 OA
BRANCH  30  34
ATOM     34  CA  GLN A   3       6.064  21.181  11.957  0.00  0.00    +0.149 C 
BRANCH  34  37
ATOM     35  C   CYS A   2       6.652  21.077  14.373  0.00  0.00    +0.242 C 
ATOM     36  O   CYS A   2       5.851  21.963  14.709  0.00  0.00    -0.273 OA
ATOM     37  N   GLN A   3       6.831  20.693  13.102  0.00  0.00    -0.297 N 
ATOM     38  H   GLN A   3       7.575  19.991  12.915  0.00  0.00    +0.150 HD
BRANCH  35  39
ATOM     39  CA  CYS A   2       7.481  20.381  15.450  0.00  0.00    +0.160 C 
BRANCH  39  41
ATOM     40  C   THR A   1       7.516  18.074  14.720  0.00  0.00    +0.241 C 
ATOM     41  N   CYS A   2       8.184  19.205  14.949  0.00  0.00    -0.296 N 
ATOM     42  H   CYS A   2       9.208  19.249  14.770  0.00  0.00    +0.150 HD
ATOM     43  O   THR A   1       6.285  18.010  14.812  0.00  0.00    -0.274 OA
BRANCH  40  44
ATOM     44  CA  THR A   1       8.311  16.833  14.335  0.00  0.00    +0.172 C 
BRANCH  44  45
ATOM     45  N   THR A   1       9.724  16.958  14.665  0.00  0.00    -0.236 NA
ATOM     46  H   THR A   1       9.994  17.163  15.648  0.00  0.00    +0.142 HD
ENDBRANCH  44  45
BRANCH  44  47
ATOM     47  CB  THR A   1       7.707  15.605  15.021  0.00  0.00    +0.135 C 
ATOM     48  CG2 THR A   1       8.461  14.344  14.629  0.00  0.00    +0.034 C 
BRANCH  47  49
ATOM     49  OG1 THR A   1       7.775  15.774  16.447  0.00  0.00    -0.383 OA
ATOM     50  HG1 THR A   1       8.721  15.875  16.721  0.00  0.00    +0.210 HD
ENDBRANCH  47  49
ENDBRANCH  44  47
ENDBRANCH  40  44
ENDBRANCH  39  41
BRANCH  39  51
ATOM     51  CB  CYS A   2       8.474  21.352  16.097  0.00  0.00    +0.098 C 
ATOM     52  SG  CYS A   2       9.520  22.236  14.921  0.00  0.00    -0.080 S 
ENDBRANCH  39  51
ENDBRANCH  35  39
ENDBRANCH  34  37
BRANCH  34  53
ATOM     53  CB  GLN A   3       4.563  20.988  12.173  0.00  0.00    +0.039 C 
BRANCH  53  54
ATOM     54  CG  GLN A   3       3.685  21.597  11.085  0.00  0.00    +0.087 C 
BRANCH  54  55
ATOM     55  CD  GLN A   3       2.206  21.499  11.425  0.00  0.00    +0.219 C 
ATOM     56  OE1 GLN A   3       1.841  21.172  12.553  0.00  0.00    -0.275 OA
ATOM     57  NE2 GLN A   3       1.349  21.765  10.447  0.00  0.00    -0.329 N 
ATOM     58 HE21 GLN A   3       0.326  21.700  10.620  0.00  0.00    +0.145 HD
ATOM     59 HE22 GLN A   3       1.701  22.038   9.507  0.00  0.00    +0.145 HD
ENDBRANCH  54  55
ENDBRANCH  53  54
ENDBRANCH  34  53
ENDBRANCH  30  34
ENDBRANCH   1  31
BRANCH   1  60
ATOM     60  CB  LEU A   4       5.087  25.780  12.755  0.00  0.00    +0.029 C 
BRANCH  60  61
ATOM     61  CG  LEU A   4       3.854  25.505  11.906  0.00  0.00    +0.002 C 
ATOM     62  CD2 LEU A   4       2.669  26.261  12.464  0.00  0.00    +0.000 C 
ATOM     63  CD1 LEU A   4       4.139  25.917  10.472  0.00  0.00    +0.000 C 
ENDBRANCH  60  61
ENDBRANCH   1  60
TORSDOF 26
REMARK  Name = ../refined-set-2016/4ymq/4ymq_pocket.pdb
REMARK  307 active torsions:
REMARK  status: ('A' for Active; 'I' for Inactive)
REMARK    1  A    between atoms: _1  and  _3
REMARK    2  A    between atoms: _3  and  _4
REMARK    3  A    between atoms: _3  and  _6
REMARK    4  A    between atoms: _6  and  _7
REMARK    5  A    between atoms: _12  and  _13
REMARK    6  A    between atoms: _15  and  _17
REMARK    7  A    between atoms: _17  and  _18
REMARK    8  A    between atoms: _17  and  _20
REMARK    9  A    between atoms: _20  and  _21
REMARK   10  A    between atoms: _24  and  _26
REMARK   11  A    between atoms: _26  and  _27
REMARK   12  A    between atoms: _26  and  _29
REMARK   13  A    between atoms: _31  and  _33
REMARK   14  A    between atoms: _33  and  _34
REMARK   15  A    between atoms: _33  and  _36
REMARK   16  A    between atoms: _36  and  _37
REMARK   17  A    between atoms: _37  and  _38
REMARK   18  A    between atoms: _43  and  _45
REMARK   19  A    between atoms: _45  and  _46
REMARK   20  A    between atoms: _45  and  _48
REMARK   21  A    between atoms: _48  and  _49
REMARK   22  A    between atoms: _52  and  _54
REMARK   23  A    between atoms: _54  and  _55
REMARK   24  A    between atoms: _54  and  _57
REMARK   25  A    between atoms: _57  and  _58
REMARK   26  A    between atoms: _58  and  _59
REMARK   27  A    between atoms: _59  and  _60
REMARK   28  A    between atoms: _69  and  _71
REMARK   29  A    between atoms: _71  and  _72
REMARK   30  A    between atoms: _71  and  _74
REMARK   31  A    between atoms: _74  and  _75
REMARK   32  A    between atoms: _78  and  _80
REMARK   33  A    between atoms: _80  and  _81
REMARK   34  A    between atoms: _80  and  _83
REMARK   35  A    between atoms: _83  and  _84
REMARK   36  A    between atoms: _87  and  _89
REMARK   37  A    between atoms: _89  and  _90
REMARK   38  A    between atoms: _89  and  _92
REMARK   39  A    between atoms: _92  and  _93
REMARK   40  A    between atoms: _99  and  _101
REMARK   41  A    between atoms: _101  and  _102
REMARK   42  A    between atoms: _101  and  _104
REMARK   43  A    between atoms: _104  and  _105
REMARK   44  A    between atoms: _105  and  _106
REMARK   45  A    between atoms: _108  and  _110
REMARK   46  A    between atoms: _110  and  _111
REMARK   47  A    between atoms: _110  and  _113
REMARK   48  A    between atoms: _113  and  _114
REMARK   49  A    between atoms: _124  and  _126
REMARK   50  A    between atoms: _126  and  _127
REMARK   51  A    between atoms: _126  and  _129
REMARK   52  A    between atoms: _129  and  _130
REMARK   53  A    between atoms: _130  and  _131
REMARK   54  A    between atoms: _134  and  _136
REMARK   55  A    between atoms: _136  and  _137
REMARK   56  A    between atoms: _136  and  _139
REMARK   57  A    between atoms: _139  and  _140
REMARK   58  A    between atoms: _140  and  _141
REMARK   59  A    between atoms: _141  and  _142
REMARK   60  A    between atoms: _151  and  _153
REMARK   61  A    between atoms: _153  and  _154
REMARK   62  A    between atoms: _153  and  _156
REMARK   63  A    between atoms: _158  and  _160
REMARK   64  A    between atoms: _160  and  _161
REMARK   65  A    between atoms: _164  and  _166
REMARK   66  A    between atoms: _166  and  _167
REMARK   67  A    between atoms: _166  and  _169
REMARK   68  A    between atoms: _169  and  _170
REMARK   69  A    between atoms: _175  and  _177
REMARK   70  A    between atoms: _177  and  _178
REMARK   71  A    between atoms: _177  and  _180
REMARK   72  A    between atoms: _180  and  _181
REMARK   73  A    between atoms: _186  and  _188
REMARK   74  A    between atoms: _188  and  _189
REMARK   75  A    between atoms: _188  and  _191
REMARK   76  A    between atoms: _191  and  _192
REMARK   77  A    between atoms: _195  and  _197
REMARK   78  A    between atoms: _197  and  _198
REMARK   79  A    between atoms: _197  and  _200
REMARK   80  A    between atoms: _200  and  _201
REMARK   81  A    between atoms: _204  and  _206
REMARK   82  A    between atoms: _206  and  _207
REMARK   83  A    between atoms: _206  and  _209
REMARK   84  A    between atoms: _209  and  _210
REMARK   85  A    between atoms: _210  and  _211
REMARK   86  A    between atoms: _214  and  _216
REMARK   87  A    between atoms: _216  and  _217
REMARK   88  A    between atoms: _220  and  _222
REMARK   89  A    between atoms: _222  and  _223
REMARK   90  A    between atoms: _222  and  _225
REMARK   91  A    between atoms: _225  and  _226
REMARK   92  A    between atoms: _229  and  _231
REMARK   93  A    between atoms: _231  and  _232
REMARK   94  A    between atoms: _231  and  _234
REMARK   95  A    between atoms: _234  and  _235
REMARK   96  A    between atoms: _240  and  _241
REMARK   97  A    between atoms: _243  and  _245
REMARK   98  A    between atoms: _245  and  _246
REMARK   99  A    between atoms: _245  and  _248
REMARK  100  A    between atoms: _251  and  _253
REMARK  101  A    between atoms: _253  and  _254
REMARK  102  A    between atoms: _253  and  _256
REMARK  103  A    between atoms: _256  and  _257
REMARK  104  A    between atoms: _257  and  _258
REMARK  105  A    between atoms: _260  and  _262
REMARK  106  A    between atoms: _262  and  _263
REMARK  107  A    between atoms: _262  and  _265
REMARK  108  A    between atoms: _268  and  _270
REMARK  109  A    between atoms: _270  and  _271
REMARK  110  A    between atoms: _270  and  _273
REMARK  111  A    between atoms: _276  and  _278
REMARK  112  A    between atoms: _278  and  _279
REMARK  113  A    between atoms: _278  and  _281
REMARK  114  A    between atoms: _281  and  _282
REMARK  115  A    between atoms: _285  and  _287
REMARK  116  A    between atoms: _287  and  _288
REMARK  117  A    between atoms: _287  and  _290
REMARK  118  A    between atoms: _293  and  _295
REMARK  119  A    between atoms: _295  and  _296
REMARK  120  A    between atoms: _295  and  _298
REMARK  121  A    between atoms: _298  and  _299
REMARK  122  A    between atoms: _299  and  _300
REMARK  123  A    between atoms: _300  and  _301
REMARK  124  A    between atoms: _310  and  _312
REMARK  125  A    between atoms: _312  and  _313
REMARK  126  A    between atoms: _312  and  _315
REMARK  127  A    between atoms: _315  and  _316
REMARK  128  A    between atoms: _316  and  _317
REMARK  129  A    between atoms: _319  and  _321
REMARK  130  A    between atoms: _321  and  _322
REMARK  131  A    between atoms: _321  and  _324
REMARK  132  A    between atoms: _326  and  _328
REMARK  133  A    between atoms: _328  and  _329
REMARK  134  A    between atoms: _328  and  _331
REMARK  135  A    between atoms: _331  and  _332
REMARK  136  A    between atoms: _332  and  _333
REMARK  137  A    between atoms: _333  and  _334
REMARK  138  A    between atoms: _343  and  _345
REMARK  139  A    between atoms: _345  and  _346
REMARK  140  A    between atoms: _349  and  _351
REMARK  141  A    between atoms: _351  and  _352
REMARK  142  A    between atoms: _351  and  _354
REMARK  143  A    between atoms: _354  and  _355
REMARK  144  A    between atoms: _360  and  _361
REMARK  145  A    between atoms: _363  and  _365
REMARK  146  A    between atoms: _365  and  _366
REMARK  147  A    between atoms: _365  and  _368
REMARK  148  A    between atoms: _368  and  _369
REMARK  149  A    between atoms: _374  and  _376
REMARK  150  A    between atoms: _376  and  _377
REMARK  151  A    between atoms: _376  and  _379
REMARK  152  A    between atoms: _379  and  _380
REMARK  153  A    between atoms: _380  and  _381
REMARK  154  A    between atoms: _381  and  _382
REMARK  155  A    between atoms: _391  and  _393
REMARK  156  A    between atoms: _393  and  _394
REMARK  157  A    between atoms: _393  and  _396
REMARK  158  A    between atoms: _396  and  _397
REMARK  159  A    between atoms: _400  and  _402
REMARK  160  A    between atoms: _402  and  _403
REMARK  161  A    between atoms: _402  and  _405
REMARK  162  A    between atoms: _408  and  _410
REMARK  163  A    between atoms: _410  and  _411
REMARK  164  A    between atoms: _410  and  _413
REMARK  165  A    between atoms: _413  and  _414
REMARK  166  A    between atoms: _420  and  _422
REMARK  167  A    between atoms: _422  and  _423
REMARK  168  A    between atoms: _422  and  _425
REMARK  169  A    between atoms: _425  and  _426
REMARK  170  A    between atoms: _432  and  _434
REMARK  171  A    between atoms: _434  and  _435
REMARK  172  A    between atoms: _434  and  _437
REMARK  173  A    between atoms: _437  and  _438
REMARK  174  A    between atoms: _438  and  _439
REMARK  175  A    between atoms: _442  and  _444
REMARK  176  A    between atoms: _444  and  _445
REMARK  177  A    between atoms: _447  and  _449
REMARK  178  A    between atoms: _449  and  _450
REMARK  179  A    between atoms: _449  and  _452
REMARK  180  A    between atoms: _452  and  _453
REMARK  181  A    between atoms: _453  and  _454
REMARK  182  A    between atoms: _454  and  _455
REMARK  183  A    between atoms: _455  and  _456
REMARK  184  A    between atoms: _460  and  _462
REMARK  185  A    between atoms: _462  and  _463
REMARK  186  A    between atoms: _462  and  _465
REMARK  187  A    between atoms: _465  and  _466
REMARK  188  A    between atoms: _471  and  _472
REMARK  189  A    between atoms: _474  and  _476
REMARK  190  A    between atoms: _476  and  _477
REMARK  191  A    between atoms: _479  and  _481
REMARK  192  A    between atoms: _481  and  _482
REMARK  193  A    between atoms: _484  and  _486
REMARK  194  A    between atoms: _486  and  _487
REMARK  195  A    between atoms: _486  and  _489
REMARK  196  A    between atoms: _489  and  _490
REMARK  197  A    between atoms: _490  and  _491
REMARK  198  A    between atoms: _493  and  _495
REMARK  199  A    between atoms: _495  and  _496
REMARK  200  A    between atoms: _495  and  _498
REMARK  201  A    between atoms: _498  and  _499
REMARK  202  A    between atoms: _502  and  _504
REMARK  203  A    between atoms: _504  and  _505
REMARK  204  A    between atoms: _504  and  _507
REMARK  205  A    between atoms: _507  and  _508
REMARK  206  A    between atoms: _514  and  _516
REMARK  207  A    between atoms: _516  and  _517
REMARK  208  A    between atoms: _516  and  _519
REMARK  209  A    between atoms: _519  and  _520
REMARK  210  A    between atoms: _523  and  _525
REMARK  211  A    between atoms: _525  and  _526
REMARK  212  A    between atoms: _525  and  _528
REMARK  213  A    between atoms: _530  and  _532
REMARK  214  A    between atoms: _532  and  _533
REMARK  215  A    between atoms: _532  and  _535
REMARK  216  A    between atoms: _535  and  _536
REMARK  217  A    between atoms: _539  and  _541
REMARK  218  A    between atoms: _541  and  _542
REMARK  219  A    between atoms: _541  and  _544
REMARK  220  A    between atoms: _544  and  _545
REMARK  221  A    between atoms: _548  and  _550
REMARK  222  A    between atoms: _550  and  _551
REMARK  223  A    between atoms: _550  and  _553
REMARK  224  A    between atoms: _553  and  _554
REMARK  225  A    between atoms: _556  and  _558
REMARK  226  A    between atoms: _558  and  _559
REMARK  227  A    between atoms: _558  and  _561
REMARK  228  A    between atoms: _561  and  _562
REMARK  229  A    between atoms: _564  and  _566
REMARK  230  A    between atoms: _566  and  _567
REMARK  231  A    between atoms: _566  and  _569
REMARK  232  A    between atoms: _569  and  _570
REMARK  233  A    between atoms: _573  and  _575
REMARK  234  A    between atoms: _575  and  _576
REMARK  235  A    between atoms: _575  and  _578
REMARK  236  A    between atoms: _578  and  _579
REMARK  237  A    between atoms: _585  and  _587
REMARK  238  A    between atoms: _587  and  _588
REMARK  239  A    between atoms: _587  and  _590
REMARK  240  A    between atoms: _590  and  _591
REMARK  241  A    between atoms: _594  and  _596
REMARK  242  A    between atoms: _596  and  _597
REMARK  243  A    between atoms: _596  and  _599
REMARK  244  A    between atoms: _599  and  _600
REMARK  245  A    between atoms: _606  and  _608
REMARK  246  A    between atoms: _608  and  _609
REMARK  247  A    between atoms: _608  and  _611
REMARK  248  A    between atoms: _611  and  _612
REMARK  249  A    between atoms: _614  and  _616
REMARK  250  A    between atoms: _616  and  _617
REMARK  251  A    between atoms: _616  and  _619
REMARK  252  A    between atoms: _619  and  _620
REMARK  253  A    between atoms: _625  and  _627
REMARK  254  A    between atoms: _627  and  _628
REMARK  255  A    between atoms: _627  and  _630
REMARK  256  A    between atoms: _630  and  _631
REMARK  257  A    between atoms: _633  and  _635
REMARK  258  A    between atoms: _635  and  _636
REMARK  259  A    between atoms: _635  and  _638
REMARK  260  A    between atoms: _638  and  _639
REMARK  261  A    between atoms: _639  and  _640
REMARK  262  A    between atoms: _643  and  _645
REMARK  263  A    between atoms: _645  and  _646
REMARK  264  A    between atoms: _645  and  _648
REMARK  265  A    between atoms: _648  and  _649
REMARK  266  A    between atoms: _652  and  _654
REMARK  267  A    between atoms: _654  and  _655
REMARK  268  A    between atoms: _654  and  _657
REMARK  269  A    between atoms: _657  and  _658
REMARK  270  A    between atoms: _661  and  _663
REMARK  271  A    between atoms: _663  and  _664
REMARK  272  A    between atoms: _663  and  _666
REMARK  273  A    between atoms: _668  and  _670
REMARK  274  A    between atoms: _670  and  _671
REMARK  275  A    between atoms: _670  and  _673
REMARK  276  A    between atoms: _673  and  _674
REMARK  277  A    between atoms: _674  and  _675
REMARK  278  A    between atoms: _680  and  _682
REMARK  279  A    between atoms: _682  and  _683
REMARK  280  A    between atoms: _682  and  _685
REMARK  281  A    between atoms: _685  and  _686
REMARK  282  A    between atoms: _691  and  _693
REMARK  283  A    between atoms: _693  and  _694
REMARK  284  A    between atoms: _693  and  _696
REMARK  285  A    between atoms: _699  and  _701
REMARK  286  A    between atoms: _701  and  _702
REMARK  287  A    between atoms: _701  and  _704
REMARK  288  A    between atoms: _704  and  _705
REMARK  289  A    between atoms: _705  and  _706
REMARK  290  A    between atoms: _706  and  _707
REMARK  291  A    between atoms: _716  and  _718
REMARK  292  A    between atoms: _718  and  _719
REMARK  293  A    between atoms: _718  and  _721
REMARK  294  A    between atoms: _721  and  _722
REMARK  295  A    between atoms: _725  and  _727
REMARK  296  A    between atoms: _727  and  _728
REMARK  297  A    between atoms: _727  and  _730
REMARK  298  A    between atoms: _730  and  _731
REMARK  299  A    between atoms: _737  and  _739
REMARK  300  A    between atoms: _739  and  _740
REMARK  301  A    between atoms: _739  and  _742
REMARK  302  A    between atoms: _742  and  _743
REMARK  303  A    between atoms: _748  and  _749
REMARK  304  A    between atoms: _751  and  _753
REMARK  305  A    between atoms: _753  and  _754
REMARK  306  A    between atoms: _753  and  _756
REMARK  307  A    between atoms: _756  and  _757
REMARK                            x       y       z     vdW  Elec       q    Type
REMARK                         _______ _______ _______ _____ _____    ______ ____
ROOT
ATOM      1  CA  LEU A   1       6.340  31.851  13.787  0.00  0.00    +0.133 C 
ENDROOT
BRANCH   1   2
ATOM      2  N   LEU A   1       7.553  31.283  13.201  0.00  0.00    -0.239 NA
ATOM      3  H   LEU A   1       7.966  30.421  13.610  0.00  0.00    +0.142 HD
ENDBRANCH   1   2
BRANCH   1   4
ATOM      4  C   LEU A   1       6.593  33.249  14.342  0.00  0.00    +0.224 C 
ATOM      5  O   LEU A   1       5.727  34.129  14.250  0.00  0.00    -0.287 OA
ENDBRANCH   1   4
BRANCH   1   6
ATOM      6  CB  LEU A   1       5.809  30.931  14.891  0.00  0.00    +0.025 C 
BRANCH   6   7
ATOM      7  CG  LEU A   1       5.254  29.570  14.464  0.00  0.00    +0.002 C 
ATOM      8  CD2 LEU A   1       4.962  28.689  15.675  0.00  0.00    +0.000 C 
ATOM      9  CD1 LEU A   1       3.999  29.757  13.619  0.00  0.00    +0.000 C 
ENDBRANCH   6   7
ENDBRANCH   1   6
TORSDOF 4
REMARK  Name = ../refined-set-2016/4ymq/4ymq_pocket.pdb
REMARK  307 active torsions:
REMARK  status: ('A' for Active; 'I' for Inactive)
REMARK    1  A    between atoms: _1  and  _3
REMARK    2  A    between atoms: _3  and  _4
REMARK    3  A    between atoms: _3  and  _6
REMARK    4  A    between atoms: _6  and  _7
REMARK    5  A    between atoms: _12  and  _13
REMARK    6  A    between atoms: _15  and  _17
REMARK    7  A    between atoms: _17  and  _18
REMARK    8  A    between atoms: _17  and  _20
REMARK    9  A    between atoms: _20  and  _21
REMARK   10  A    between atoms: _24  and  _26
REMARK   11  A    between atoms: _26  and  _27
REMARK   12  A    between atoms: _26  and  _29
REMARK   13  A    between atoms: _31  and  _33
REMARK   14  A    between atoms: _33  and  _34
REMARK   15  A    between atoms: _33  and  _36
REMARK   16  A    between atoms: _36  and  _37
REMARK   17  A    between atoms: _37  and  _38
REMARK   18  A    between atoms: _43  and  _45
REMARK   19  A    between atoms: _45  and  _46
REMARK   20  A    between atoms: _45  and  _48
REMARK   21  A    between atoms: _48  and  _49
REMARK   22  A    between atoms: _52  and  _54
REMARK   23  A    between atoms: _54  and  _55
REMARK   24  A    between atoms: _54  and  _57
REMARK   25  A    between atoms: _57  and  _58
REMARK   26  A    between atoms: _58  and  _59
REMARK   27  A    between atoms: _59  and  _60
REMARK   28  A    between atoms: _69  and  _71
REMARK   29  A    between atoms: _71  and  _72
REMARK   30  A    between atoms: _71  and  _74
REMARK   31  A    between atoms: _74  and  _75
REMARK   32  A    between atoms: _78  and  _80
REMARK   33  A    between atoms: _80  and  _81
REMARK   34  A    between atoms: _80  and  _83
REMARK   35  A    between atoms: _83  and  _84
REMARK   36  A    between atoms: _87  and  _89
REMARK   37  A    between atoms: _89  and  _90
REMARK   38  A    between atoms: _89  and  _92
REMARK   39  A    between atoms: _92  and  _93
REMARK   40  A    between atoms: _99  and  _101
REMARK   41  A    between atoms: _101  and  _102
REMARK   42  A    between atoms: _101  and  _104
REMARK   43  A    between atoms: _104  and  _105
REMARK   44  A    between atoms: _105  and  _106
REMARK   45  A    between atoms: _108  and  _110
REMARK   46  A    between atoms: _110  and  _111
REMARK   47  A    between atoms: _110  and  _113
REMARK   48  A    between atoms: _113  and  _114
REMARK   49  A    between atoms: _124  and  _126
REMARK   50  A    between atoms: _126  and  _127
REMARK   51  A    between atoms: _126  and  _129
REMARK   52  A    between atoms: _129  and  _130
REMARK   53  A    between atoms: _130  and  _131
REMARK   54  A    between atoms: _134  and  _136
REMARK   55  A    between atoms: _136  and  _137
REMARK   56  A    between atoms: _136  and  _139
REMARK   57  A    between atoms: _139  and  _140
REMARK   58  A    between atoms: _140  and  _141
REMARK   59  A    between atoms: _141  and  _142
REMARK   60  A    between atoms: _151  and  _153
REMARK   61  A    between atoms: _153  and  _154
REMARK   62  A    between atoms: _153  and  _156
REMARK   63  A    between atoms: _158  and  _160
REMARK   64  A    between atoms: _160  and  _161
REMARK   65  A    between atoms: _164  and  _166
REMARK   66  A    between atoms: _166  and  _167
REMARK   67  A    between atoms: _166  and  _169
REMARK   68  A    between atoms: _169  and  _170
REMARK   69  A    between atoms: _175  and  _177
REMARK   70  A    between atoms: _177  and  _178
REMARK   71  A    between atoms: _177  and  _180
REMARK   72  A    between atoms: _180  and  _181
REMARK   73  A    between atoms: _186  and  _188
REMARK   74  A    between atoms: _188  and  _189
REMARK   75  A    between atoms: _188  and  _191
REMARK   76  A    between atoms: _191  and  _192
REMARK   77  A    between atoms: _195  and  _197
REMARK   78  A    between atoms: _197  and  _198
REMARK   79  A    between atoms: _197  and  _200
REMARK   80  A    between atoms: _200  and  _201
REMARK   81  A    between atoms: _204  and  _206
REMARK   82  A    between atoms: _206  and  _207
REMARK   83  A    between atoms: _206  and  _209
REMARK   84  A    between atoms: _209  and  _210
REMARK   85  A    between atoms: _210  and  _211
REMARK   86  A    between atoms: _214  and  _216
REMARK   87  A    between atoms: _216  and  _217
REMARK   88  A    between atoms: _220  and  _222
REMARK   89  A    between atoms: _222  and  _223
REMARK   90  A    between atoms: _222  and  _225
REMARK   91  A    between atoms: _225  and  _226
REMARK   92  A    between atoms: _229  and  _231
REMARK   93  A    between atoms: _231  and  _232
REMARK   94  A    between atoms: _231  and  _234
REMARK   95  A    between atoms: _234  and  _235
REMARK   96  A    between atoms: _240  and  _241
REMARK   97  A    between atoms: _243  and  _245
REMARK   98  A    between atoms: _245  and  _246
REMARK   99  A    between atoms: _245  and  _248
REMARK  100  A    between atoms: _251  and  _253
REMARK  101  A    between atoms: _253  and  _254
REMARK  102  A    between atoms: _253  and  _256
REMARK  103  A    between atoms: _256  and  _257
REMARK  104  A    between atoms: _257  and  _258
REMARK  105  A    between atoms: _260  and  _262
REMARK  106  A    between atoms: _262  and  _263
REMARK  107  A    between atoms: _262  and  _265
REMARK  108  A    between atoms: _268  and  _270
REMARK  109  A    between atoms: _270  and  _271
REMARK  110  A    between atoms: _270  and  _273
REMARK  111  A    between atoms: _276  and  _278
REMARK  112  A    between atoms: _278  and  _279
REMARK  113  A    between atoms: _278  and  _281
REMARK  114  A    between atoms: _281  and  _282
REMARK  115  A    between atoms: _285  and  _287
REMARK  116  A    between atoms: _287  and  _288
REMARK  117  A    between atoms: _287  and  _290
REMARK  118  A    between atoms: _293  and  _295
REMARK  119  A    between atoms: _295  and  _296
REMARK  120  A    between atoms: _295  and  _298
REMARK  121  A    between atoms: _298  and  _299
REMARK  122  A    between atoms: _299  and  _300
REMARK  123  A    between atoms: _300  and  _301
REMARK  124  A    between atoms: _310  and  _312
REMARK  125  A    between atoms: _312  and  _313
REMARK  126  A    between atoms: _312  and  _315
REMARK  127  A    between atoms: _315  and  _316
REMARK  128  A    between atoms: _316  and  _317
REMARK  129  A    between atoms: _319  and  _321
REMARK  130  A    between atoms: _321  and  _322
REMARK  131  A    between atoms: _321  and  _324
REMARK  132  A    between atoms: _326  and  _328
REMARK  133  A    between atoms: _328  and  _329
REMARK  134  A    between atoms: _328  and  _331
REMARK  135  A    between atoms: _331  and  _332
REMARK  136  A    between atoms: _332  and  _333
REMARK  137  A    between atoms: _333  and  _334
REMARK  138  A    between atoms: _343  and  _345
REMARK  139  A    between atoms: _345  and  _346
REMARK  140  A    between atoms: _349  and  _351
REMARK  141  A    between atoms: _351  and  _352
REMARK  142  A    between atoms: _351  and  _354
REMARK  143  A    between atoms: _354  and  _355
REMARK  144  A    between atoms: _360  and  _361
REMARK  145  A    between atoms: _363  and  _365
REMARK  146  A    between atoms: _365  and  _366
REMARK  147  A    between atoms: _365  and  _368
REMARK  148  A    between atoms: _368  and  _369
REMARK  149  A    between atoms: _374  and  _376
REMARK  150  A    between atoms: _376  and  _377
REMARK  151  A    between atoms: _376  and  _379
REMARK  152  A    between atoms: _379  and  _380
REMARK  153  A    between atoms: _380  and  _381
REMARK  154  A    between atoms: _381  and  _382
REMARK  155  A    between atoms: _391  and  _393
REMARK  156  A    between atoms: _393  and  _394
REMARK  157  A    between atoms: _393  and  _396
REMARK  158  A    between atoms: _396  and  _397
REMARK  159  A    between atoms: _400  and  _402
REMARK  160  A    between atoms: _402  and  _403
REMARK  161  A    between atoms: _402  and  _405
REMARK  162  A    between atoms: _408  and  _410
REMARK  163  A    between atoms: _410  and  _411
REMARK  164  A    between atoms: _410  and  _413
REMARK  165  A    between atoms: _413  and  _414
REMARK  166  A    between atoms: _420  and  _422
REMARK  167  A    between atoms: _422  and  _423
REMARK  168  A    between atoms: _422  and  _425
REMARK  169  A    between atoms: _425  and  _426
REMARK  170  A    between atoms: _432  and  _434
REMARK  171  A    between atoms: _434  and  _435
REMARK  172  A    between atoms: _434  and  _437
REMARK  173  A    between atoms: _437  and  _438
REMARK  174  A    between atoms: _438  and  _439
REMARK  175  A    between atoms: _442  and  _444
REMARK  176  A    between atoms: _444  and  _445
REMARK  177  A    between atoms: _447  and  _449
REMARK  178  A    between atoms: _449  and  _450
REMARK  179  A    between atoms: _449  and  _452
REMARK  180  A    between atoms: _452  and  _453
REMARK  181  A    between atoms: _453  and  _454
REMARK  182  A    between atoms: _454  and  _455
REMARK  183  A    between atoms: _455  and  _456
REMARK  184  A    between atoms: _460  and  _462
REMARK  185  A    between atoms: _462  and  _463
REMARK  186  A    between atoms: _462  and  _465
REMARK  187  A    between atoms: _465  and  _466
REMARK  188  A    between atoms: _471  and  _472
REMARK  189  A    between atoms: _474  and  _476
REMARK  190  A    between atoms: _476  and  _477
REMARK  191  A    between atoms: _479  and  _481
REMARK  192  A    between atoms: _481  and  _482
REMARK  193  A    between atoms: _484  and  _486
REMARK  194  A    between atoms: _486  and  _487
REMARK  195  A    between atoms: _486  and  _489
REMARK  196  A    between atoms: _489  and  _490
REMARK  197  A    between atoms: _490  and  _491
REMARK  198  A    between atoms: _493  and  _495
REMARK  199  A    between atoms: _495  and  _496
REMARK  200  A    between atoms: _495  and  _498
REMARK  201  A    between atoms: _498  and  _499
REMARK  202  A    between atoms: _502  and  _504
REMARK  203  A    between atoms: _504  and  _505
REMARK  204  A    between atoms: _504  and  _507
REMARK  205  A    between atoms: _507  and  _508
REMARK  206  A    between atoms: _514  and  _516
REMARK  207  A    between atoms: _516  and  _517
REMARK  208  A    between atoms: _516  and  _519
REMARK  209  A    between atoms: _519  and  _520
REMARK  210  A    between atoms: _523  and  _525
REMARK  211  A    between atoms: _525  and  _526
REMARK  212  A    between atoms: _525  and  _528
REMARK  213  A    between atoms: _530  and  _532
REMARK  214  A    between atoms: _532  and  _533
REMARK  215  A    between atoms: _532  and  _535
REMARK  216  A    between atoms: _535  and  _536
REMARK  217  A    between atoms: _539  and  _541
REMARK  218  A    between atoms: _541  and  _542
REMARK  219  A    between atoms: _541  and  _544
REMARK  220  A    between atoms: _544  and  _545
REMARK  221  A    between atoms: _548  and  _550
REMARK  222  A    between atoms: _550  and  _551
REMARK  223  A    between atoms: _550  and  _553
REMARK  224  A    between atoms: _553  and  _554
REMARK  225  A    between atoms: _556  and  _558
REMARK  226  A    between atoms: _558  and  _559
REMARK  227  A    between atoms: _558  and  _561
REMARK  228  A    between atoms: _561  and  _562
REMARK  229  A    between atoms: _564  and  _566
REMARK  230  A    between atoms: _566  and  _567
REMARK  231  A    between atoms: _566  and  _569
REMARK  232  A    between atoms: _569  and  _570
REMARK  233  A    between atoms: _573  and  _575
REMARK  234  A    between atoms: _575  and  _576
REMARK  235  A    between atoms: _575  and  _578
REMARK  236  A    between atoms: _578  and  _579
REMARK  237  A    between atoms: _585  and  _587
REMARK  238  A    between atoms: _587  and  _588
REMARK  239  A    between atoms: _587  and  _590
REMARK  240  A    between atoms: _590  and  _591
REMARK  241  A    between atoms: _594  and  _596
REMARK  242  A    between atoms: _596  and  _597
REMARK  243  A    between atoms: _596  and  _599
REMARK  244  A    between atoms: _599  and  _600
REMARK  245  A    between atoms: _606  and  _608
REMARK  246  A    between atoms: _608  and  _609
REMARK  247  A    between atoms: _608  and  _611
REMARK  248  A    between atoms: _611  and  _612
REMARK  249  A    between atoms: _614  and  _616
REMARK  250  A    between atoms: _616  and  _617
REMARK  251  A    between atoms: _616  and  _619
REMARK  252  A    between atoms: _619  and  _620
REMARK  253  A    between atoms: _625  and  _627
REMARK  254  A    between atoms: _627  and  _628
REMARK  255  A    between atoms: _627  and  _630
REMARK  256  A    between atoms: _630  and  _631
REMARK  257  A    between atoms: _633  and  _635
REMARK  258  A    between atoms: _635  and  _636
REMARK  259  A    between atoms: _635  and  _638
REMARK  260  A    between atoms: _638  and  _639
REMARK  261  A    between atoms: _639  and  _640
REMARK  262  A    between atoms: _643  and  _645
REMARK  263  A    between atoms: _645  and  _646
REMARK  264  A    between atoms: _645  and  _648
REMARK  265  A    between atoms: _648  and  _649
REMARK  266  A    between atoms: _652  and  _654
REMARK  267  A    between atoms: _654  and  _655
REMARK  268  A    between atoms: _654  and  _657
REMARK  269  A    between atoms: _657  and  _658
REMARK  270  A    between atoms: _661  and  _663
REMARK  271  A    between atoms: _663  and  _664
REMARK  272  A    between atoms: _663  and  _666
REMARK  273  A    between atoms: _668  and  _670
REMARK  274  A    between atoms: _670  and  _671
REMARK  275  A    between atoms: _670  and  _673
REMARK  276  A    between atoms: _673  and  _674
REMARK  277  A    between atoms: _674  and  _675
REMARK  278  A    between atoms: _680  and  _682
REMARK  279  A    between atoms: _682  and  _683
REMARK  280  A    between atoms: _682  and  _685
REMARK  281  A    between atoms: _685  and  _686
REMARK  282  A    between atoms: _691  and  _693
REMARK  283  A    between atoms: _693  and  _694
REMARK  284  A    between atoms: _693  and  _696
REMARK  285  A    between atoms: _699  and  _701
REMARK  286  A    between atoms: _701  and  _702
REMARK  287  A    between atoms: _701  and  _704
REMARK  288  A    between atoms: _704  and  _705
REMARK  289  A    between atoms: _705  and  _706
REMARK  290  A    between atoms: _706  and  _707
REMARK  291  A    between atoms: _716  and  _718
REMARK  292  A    between atoms: _718  and  _719
REMARK  293  A    between atoms: _718  and  _721
REMARK  294  A    between atoms: _721  and  _722
REMARK  295  A    between atoms: _725  and  _727
REMARK  296  A    between atoms: _727  and  _728
REMARK  297  A    between atoms: _727  and  _730
REMARK  298  A    between atoms: _730  and  _731
REMARK  299  A    between atoms: _737  and  _739
REMARK  300  A    between atoms: _739  and  _740
REMARK  301  A    between atoms: _739  and  _742
REMARK  302  A    between atoms: _742  and  _743
REMARK  303  A    between atoms: _748  and  _749
REMARK  304  A    between atoms: _751  and  _753
REMARK  305  A    between atoms: _753  and  _754
REMARK  306  A    between atoms: _753  and  _756
REMARK  307  A    between atoms: _756  and  _757
REMARK                            x       y       z     vdW  Elec       q    Type
REMARK                         _______ _______ _______ _____ _____    ______ ____
ROOT
ATOM      1  CB  PHE A   1      -5.751  39.222   8.432  0.00  0.00    +0.051 C 
ENDROOT
BRANCH   1   2
ATOM      2  CG  PHE A   1      -5.377  37.808   8.087  0.00  0.00    -0.020 A 
ATOM      3  CD2 PHE A   1      -5.303  36.837   9.074  0.00  0.00    -0.004 A 
ATOM      4  CE2 PHE A   1      -4.966  35.532   8.761  0.00  0.00    -0.000 A 
ATOM      5  CZ  PHE A   1      -4.702  35.186   7.447  0.00  0.00    -0.000 A 
ATOM      6  CE1 PHE A   1      -4.779  36.145   6.452  0.00  0.00    -0.000 A 
ATOM      7  CD1 PHE A   1      -5.119  37.445   6.774  0.00  0.00    -0.004 A 
ENDBRANCH   1   2
BRANCH   1   8
ATOM      8  CA  PHE A   1      -4.635  40.243   8.190  0.00  0.00    +0.137 C 
BRANCH   8   9
ATOM      9  N   PHE A   1      -3.557  40.052   9.153  0.00  0.00    -0.239 NA
ATOM     10  H   PHE A   1      -3.652  39.327   9.892  0.00  0.00    +0.142 HD
ENDBRANCH   8   9
BRANCH   8  11
ATOM     11  C   PHE A   1      -5.220  41.643   8.320  0.00  0.00    +0.224 C 
ATOM     12  O   PHE A   1      -5.461  42.133   9.427  0.00  0.00    -0.287 OA
ENDBRANCH   8  11
ENDBRANCH   1   8
TORSDOF 4
REMARK  Name = ../refined-set-2016/4ymq/4ymq_pocket.pdb
REMARK  307 active torsions:
REMARK  status: ('A' for Active; 'I' for Inactive)
REMARK    1  A    between atoms: _1  and  _3
REMARK    2  A    between atoms: _3  and  _4
REMARK    3  A    between atoms: _3  and  _6
REMARK    4  A    between atoms: _6  and  _7
REMARK    5  A    between atoms: _12  and  _13
REMARK    6  A    between atoms: _15  and  _17
REMARK    7  A    between atoms: _17  and  _18
REMARK    8  A    between atoms: _17  and  _20
REMARK    9  A    between atoms: _20  and  _21
REMARK   10  A    between atoms: _24  and  _26
REMARK   11  A    between atoms: _26  and  _27
REMARK   12  A    between atoms: _26  and  _29
REMARK   13  A    between atoms: _31  and  _33
REMARK   14  A    between atoms: _33  and  _34
REMARK   15  A    between atoms: _33  and  _36
REMARK   16  A    between atoms: _36  and  _37
REMARK   17  A    between atoms: _37  and  _38
REMARK   18  A    between atoms: _43  and  _45
REMARK   19  A    between atoms: _45  and  _46
REMARK   20  A    between atoms: _45  and  _48
REMARK   21  A    between atoms: _48  and  _49
REMARK   22  A    between atoms: _52  and  _54
REMARK   23  A    between atoms: _54  and  _55
REMARK   24  A    between atoms: _54  and  _57
REMARK   25  A    between atoms: _57  and  _58
REMARK   26  A    between atoms: _58  and  _59
REMARK   27  A    between atoms: _59  and  _60
REMARK   28  A    between atoms: _69  and  _71
REMARK   29  A    between atoms: _71  and  _72
REMARK   30  A    between atoms: _71  and  _74
REMARK   31  A    between atoms: _74  and  _75
REMARK   32  A    between atoms: _78  and  _80
REMARK   33  A    between atoms: _80  and  _81
REMARK   34  A    between atoms: _80  and  _83
REMARK   35  A    between atoms: _83  and  _84
REMARK   36  A    between atoms: _87  and  _89
REMARK   37  A    between atoms: _89  and  _90
REMARK   38  A    between atoms: _89  and  _92
REMARK   39  A    between atoms: _92  and  _93
REMARK   40  A    between atoms: _99  and  _101
REMARK   41  A    between atoms: _101  and  _102
REMARK   42  A    between atoms: _101  and  _104
REMARK   43  A    between atoms: _104  and  _105
REMARK   44  A    between atoms: _105  and  _106
REMARK   45  A    between atoms: _108  and  _110
REMARK   46  A    between atoms: _110  and  _111
REMARK   47  A    between atoms: _110  and  _113
REMARK   48  A    between atoms: _113  and  _114
REMARK   49  A    between atoms: _124  and  _126
REMARK   50  A    between atoms: _126  and  _127
REMARK   51  A    between atoms: _126  and  _129
REMARK   52  A    between atoms: _129  and  _130
REMARK   53  A    between atoms: _130  and  _131
REMARK   54  A    between atoms: _134  and  _136
REMARK   55  A    between atoms: _136  and  _137
REMARK   56  A    between atoms: _136  and  _139
REMARK   57  A    between atoms: _139  and  _140
REMARK   58  A    between atoms: _140  and  _141
REMARK   59  A    between atoms: _141  and  _142
REMARK   60  A    between atoms: _151  and  _153
REMARK   61  A    between atoms: _153  and  _154
REMARK   62  A    between atoms: _153  and  _156
REMARK   63  A    between atoms: _158  and  _160
REMARK   64  A    between atoms: _160  and  _161
REMARK   65  A    between atoms: _164  and  _166
REMARK   66  A    between atoms: _166  and  _167
REMARK   67  A    between atoms: _166  and  _169
REMARK   68  A    between atoms: _169  and  _170
REMARK   69  A    between atoms: _175  and  _177
REMARK   70  A    between atoms: _177  and  _178
REMARK   71  A    between atoms: _177  and  _180
REMARK   72  A    between atoms: _180  and  _181
REMARK   73  A    between atoms: _186  and  _188
REMARK   74  A    between atoms: _188  and  _189
REMARK   75  A    between atoms: _188  and  _191
REMARK   76  A    between atoms: _191  and  _192
REMARK   77  A    between atoms: _195  and  _197
REMARK   78  A    between atoms: _197  and  _198
REMARK   79  A    between atoms: _197  and  _200
REMARK   80  A    between atoms: _200  and  _201
REMARK   81  A    between atoms: _204  and  _206
REMARK   82  A    between atoms: _206  and  _207
REMARK   83  A    between atoms: _206  and  _209
REMARK   84  A    between atoms: _209  and  _210
REMARK   85  A    between atoms: _210  and  _211
REMARK   86  A    between atoms: _214  and  _216
REMARK   87  A    between atoms: _216  and  _217
REMARK   88  A    between atoms: _220  and  _222
REMARK   89  A    between atoms: _222  and  _223
REMARK   90  A    between atoms: _222  and  _225
REMARK   91  A    between atoms: _225  and  _226
REMARK   92  A    between atoms: _229  and  _231
REMARK   93  A    between atoms: _231  and  _232
REMARK   94  A    between atoms: _231  and  _234
REMARK   95  A    between atoms: _234  and  _235
REMARK   96  A    between atoms: _240  and  _241
REMARK   97  A    between atoms: _243  and  _245
REMARK   98  A    between atoms: _245  and  _246
REMARK   99  A    between atoms: _245  and  _248
REMARK  100  A    between atoms: _251  and  _253
REMARK  101  A    between atoms: _253  and  _254
REMARK  102  A    between atoms: _253  and  _256
REMARK  103  A    between atoms: _256  and  _257
REMARK  104  A    between atoms: _257  and  _258
REMARK  105  A    between atoms: _260  and  _262
REMARK  106  A    between atoms: _262  and  _263
REMARK  107  A    between atoms: _262  and  _265
REMARK  108  A    between atoms: _268  and  _270
REMARK  109  A    between atoms: _270  and  _271
REMARK  110  A    between atoms: _270  and  _273
REMARK  111  A    between atoms: _276  and  _278
REMARK  112  A    between atoms: _278  and  _279
REMARK  113  A    between atoms: _278  and  _281
REMARK  114  A    between atoms: _281  and  _282
REMARK  115  A    between atoms: _285  and  _287
REMARK  116  A    between atoms: _287  and  _288
REMARK  117  A    between atoms: _287  and  _290
REMARK  118  A    between atoms: _293  and  _295
REMARK  119  A    between atoms: _295  and  _296
REMARK  120  A    between atoms: _295  and  _298
REMARK  121  A    between atoms: _298  and  _299
REMARK  122  A    between atoms: _299  and  _300
REMARK  123  A    between atoms: _300  and  _301
REMARK  124  A    between atoms: _310  and  _312
REMARK  125  A    between atoms: _312  and  _313
REMARK  126  A    between atoms: _312  and  _315
REMARK  127  A    between atoms: _315  and  _316
REMARK  128  A    between atoms: _316  and  _317
REMARK  129  A    between atoms: _319  and  _321
REMARK  130  A    between atoms: _321  and  _322
REMARK  131  A    between atoms: _321  and  _324
REMARK  132  A    between atoms: _326  and  _328
REMARK  133  A    between atoms: _328  and  _329
REMARK  134  A    between atoms: _328  and  _331
REMARK  135  A    between atoms: _331  and  _332
REMARK  136  A    between atoms: _332  and  _333
REMARK  137  A    between atoms: _333  and  _334
REMARK  138  A    between atoms: _343  and  _345
REMARK  139  A    between atoms: _345  and  _346
REMARK  140  A    between atoms: _349  and  _351
REMARK  141  A    between atoms: _351  and  _352
REMARK  142  A    between atoms: _351  and  _354
REMARK  143  A    between atoms: _354  and  _355
REMARK  144  A    between atoms: _360  and  _361
REMARK  145  A    between atoms: _363  and  _365
REMARK  146  A    between atoms: _365  and  _366
REMARK  147  A    between atoms: _365  and  _368
REMARK  148  A    between atoms: _368  and  _369
REMARK  149  A    between atoms: _374  and  _376
REMARK  150  A    between atoms: _376  and  _377
REMARK  151  A    between atoms: _376  and  _379
REMARK  152  A    between atoms: _379  and  _380
REMARK  153  A    between atoms: _380  and  _381
REMARK  154  A    between atoms: _381  and  _382
REMARK  155  A    between atoms: _391  and  _393
REMARK  156  A    between atoms: _393  and  _394
REMARK  157  A    between atoms: _393  and  _396
REMARK  158  A    between atoms: _396  and  _397
REMARK  159  A    between atoms: _400  and  _402
REMARK  160  A    between atoms: _402  and  _403
REMARK  161  A    between atoms: _402  and  _405
REMARK  162  A    between atoms: _408  and  _410
REMARK  163  A    between atoms: _410  and  _411
REMARK  164  A    between atoms: _410  and  _413
REMARK  165  A    between atoms: _413  and  _414
REMARK  166  A    between atoms: _420  and  _422
REMARK  167  A    between atoms: _422  and  _423
REMARK  168  A    between atoms: _422  and  _425
REMARK  169  A    between atoms: _425  and  _426
REMARK  170  A    between atoms: _432  and  _434
REMARK  171  A    between atoms: _434  and  _435
REMARK  172  A    between atoms: _434  and  _437
REMARK  173  A    between atoms: _437  and  _438
REMARK  174  A    between atoms: _438  and  _439
REMARK  175  A    between atoms: _442  and  _444
REMARK  176  A    between atoms: _444  and  _445
REMARK  177  A    between atoms: _447  and  _449
REMARK  178  A    between atoms: _449  and  _450
REMARK  179  A    between atoms: _449  and  _452
REMARK  180  A    between atoms: _452  and  _453
REMARK  181  A    between atoms: _453  and  _454
REMARK  182  A    between atoms: _454  and  _455
REMARK  183  A    between atoms: _455  and  _456
REMARK  184  A    between atoms: _460  and  _462
REMARK  185  A    between atoms: _462  and  _463
REMARK  186  A    between atoms: _462  and  _465
REMARK  187  A    between atoms: _465  and  _466
REMARK  188  A    between atoms: _471  and  _472
REMARK  189  A    between atoms: _474  and  _476
REMARK  190  A    between atoms: _476  and  _477
REMARK  191  A    between atoms: _479  and  _481
REMARK  192  A    between atoms: _481  and  _482
REMARK  193  A    between atoms: _484  and  _486
REMARK  194  A    between atoms: _486  and  _487
REMARK  195  A    between atoms: _486  and  _489
REMARK  196  A    between atoms: _489  and  _490
REMARK  197  A    between atoms: _490  and  _491
REMARK  198  A    between atoms: _493  and  _495
REMARK  199  A    between atoms: _495  and  _496
REMARK  200  A    between atoms: _495  and  _498
REMARK  201  A    between atoms: _498  and  _499
REMARK  202  A    between atoms: _502  and  _504
REMARK  203  A    between atoms: _504  and  _505
REMARK  204  A    between atoms: _504  and  _507
REMARK  205  A    between atoms: _507  and  _508
REMARK  206  A    between atoms: _514  and  _516
REMARK  207  A    between atoms: _516  and  _517
REMARK  208  A    between atoms: _516  and  _519
REMARK  209  A    between atoms: _519  and  _520
REMARK  210  A    between atoms: _523  and  _525
REMARK  211  A    between atoms: _525  and  _526
REMARK  212  A    between atoms: _525  and  _528
REMARK  213  A    between atoms: _530  and  _532
REMARK  214  A    between atoms: _532  and  _533
REMARK  215  A    between atoms: _532  and  _535
REMARK  216  A    between atoms: _535  and  _536
REMARK  217  A    between atoms: _539  and  _541
REMARK  218  A    between atoms: _541  and  _542
REMARK  219  A    between atoms: _541  and  _544
REMARK  220  A    between atoms: _544  and  _545
REMARK  221  A    between atoms: _548  and  _550
REMARK  222  A    between atoms: _550  and  _551
REMARK  223  A    between atoms: _550  and  _553
REMARK  224  A    between atoms: _553  and  _554
REMARK  225  A    between atoms: _556  and  _558
REMARK  226  A    between atoms: _558  and  _559
REMARK  227  A    between atoms: _558  and  _561
REMARK  228  A    between atoms: _561  and  _562
REMARK  229  A    between atoms: _564  and  _566
REMARK  230  A    between atoms: _566  and  _567
REMARK  231  A    between atoms: _566  and  _569
REMARK  232  A    between atoms: _569  and  _570
REMARK  233  A    between atoms: _573  and  _575
REMARK  234  A    between atoms: _575  and  _576
REMARK  235  A    between atoms: _575  and  _578
REMARK  236  A    between atoms: _578  and  _579
REMARK  237  A    between atoms: _585  and  _587
REMARK  238  A    between atoms: _587  and  _588
REMARK  239  A    between atoms: _587  and  _590
REMARK  240  A    between atoms: _590  and  _591
REMARK  241  A    between atoms: _594  and  _596
REMARK  242  A    between atoms: _596  and  _597
REMARK  243  A    between atoms: _596  and  _599
REMARK  244  A    between atoms: _599  and  _600
REMARK  245  A    between atoms: _606  and  _608
REMARK  246  A    between atoms: _608  and  _609
REMARK  247  A    between atoms: _608  and  _611
REMARK  248  A    between atoms: _611  and  _612
REMARK  249  A    between atoms: _614  and  _616
REMARK  250  A    between atoms: _616  and  _617
REMARK  251  A    between atoms: _616  and  _619
REMARK  252  A    between atoms: _619  and  _620
REMARK  253  A    between atoms: _625  and  _627
REMARK  254  A    between atoms: _627  and  _628
REMARK  255  A    between atoms: _627  and  _630
REMARK  256  A    between atoms: _630  and  _631
REMARK  257  A    between atoms: _633  and  _635
REMARK  258  A    between atoms: _635  and  _636
REMARK  259  A    between atoms: _635  and  _638
REMARK  260  A    between atoms: _638  and  _639
REMARK  261  A    between atoms: _639  and  _640
REMARK  262  A    between atoms: _643  and  _645
REMARK  263  A    between atoms: _645  and  _646
REMARK  264  A    between atoms: _645  and  _648
REMARK  265  A    between atoms: _648  and  _649
REMARK  266  A    between atoms: _652  and  _654
REMARK  267  A    between atoms: _654  and  _655
REMARK  268  A    between atoms: _654  and  _657
REMARK  269  A    between atoms: _657  and  _658
REMARK  270  A    between atoms: _661  and  _663
REMARK  271  A    between atoms: _663  and  _664
REMARK  272  A    between atoms: _663  and  _666
REMARK  273  A    between atoms: _668  and  _670
REMARK  274  A    between atoms: _670  and  _671
REMARK  275  A    between atoms: _670  and  _673
REMARK  276  A    between atoms: _673  and  _674
REMARK  277  A    between atoms: _674  and  _675
REMARK  278  A    between atoms: _680  and  _682
REMARK  279  A    between atoms: _682  and  _683
REMARK  280  A    between atoms: _682  and  _685
REMARK  281  A    between atoms: _685  and  _686
REMARK  282  A    between atoms: _691  and  _693
REMARK  283  A    between atoms: _693  and  _694
REMARK  284  A    between atoms: _693  and  _696
REMARK  285  A    between atoms: _699  and  _701
REMARK  286  A    between atoms: _701  and  _702
REMARK  287  A    between atoms: _701  and  _704
REMARK  288  A    between atoms: _704  and  _705
REMARK  289  A    between atoms: _705  and  _706
REMARK  290  A    between atoms: _706  and  _707
REMARK  291  A    between atoms: _716  and  _718
REMARK  292  A    between atoms: _718  and  _719
REMARK  293  A    between atoms: _718  and  _721
REMARK  294  A    between atoms: _721  and  _722
REMARK  295  A    between atoms: _725  and  _727
REMARK  296  A    between atoms: _727  and  _728
REMARK  297  A    between atoms: _727  and  _730
REMARK  298  A    between atoms: _730  and  _731
REMARK  299  A    between atoms: _737  and  _739
REMARK  300  A    between atoms: _739  and  _740
REMARK  301  A    between atoms: _739  and  _742
REMARK  302  A    between atoms: _742  and  _743
REMARK  303  A    between atoms: _748  and  _749
REMARK  304  A    between atoms: _751  and  _753
REMARK  305  A    between atoms: _753  and  _754
REMARK  306  A    between atoms: _753  and  _756
REMARK  307  A    between atoms: _756  and  _757
REMARK                            x       y       z     vdW  Elec       q    Type
REMARK                         _______ _______ _______ _____ _____    ______ ____
ROOT
ATOM      1  C   ALA A   6      -9.163  19.838   8.820  0.00  0.00    +0.241 C 
ATOM      2  O   ALA A   6      -8.442  18.941   9.274  0.00  0.00    -0.273 OA
ATOM      3  N   HIS A   7      -8.915  20.429   7.648  0.00  0.00    -0.297 N 
ATOM      4  H   HIS A   7      -9.602  21.109   7.263  0.00  0.00    +0.150 HD
ENDROOT
BRANCH   1   5
ATOM      5  CA  ALA A   6     -10.391  20.309   9.591  0.00  0.00    +0.149 C 
ATOM      6  CB  ALA A   6     -11.636  19.540   9.150  0.00  0.00    +0.031 C 
BRANCH   5   9
ATOM      7  C   CYS A   5      -9.706  22.602   9.932  0.00  0.00    +0.242 C 
ATOM      8  O   CYS A   5      -8.734  22.221  10.592  0.00  0.00    -0.273 OA
ATOM      9  N   ALA A   6     -10.596  21.746   9.428  0.00  0.00    -0.297 N 
ATOM     10  H   ALA A   6     -11.432  22.100   8.921  0.00  0.00    +0.150 HD
BRANCH   7  11
ATOM     11  CA  CYS A   5      -9.916  24.087   9.664  0.00  0.00    +0.160 C 
BRANCH  11  13
ATOM     12  C   ARG A   4      -9.728  24.110   7.252  0.00  0.00    +0.241 C 
ATOM     13  N   CYS A   5     -10.473  24.317   8.336  0.00  0.00    -0.296 N 
ATOM     14  H   CYS A   5     -11.455  24.644   8.235  0.00  0.00    +0.150 HD
ATOM     15  O   ARG A   4      -8.555  23.730   7.323  0.00  0.00    -0.273 OA
BRANCH  12  16
ATOM     16  CA  ARG A   4     -10.384  24.338   5.899  0.00  0.00    +0.149 C 
BRANCH  16  19
ATOM     17  C   GLU A   3     -11.954  22.501   5.971  0.00  0.00    +0.241 C 
ATOM     18  O   GLU A   3     -11.019  21.698   6.099  0.00  0.00    -0.273 OA
ATOM     19  N   ARG A   4     -11.746  23.816   5.876  0.00  0.00    -0.297 N 
ATOM     20  H   ARG A   4     -12.552  24.466   5.786  0.00  0.00    +0.150 HD
BRANCH  17  21
ATOM     21  CA  GLU A   3     -13.397  22.011   5.910  0.00  0.00    +0.149 C 
BRANCH  21  24
ATOM     22  C   TRP A   2     -14.085  22.964   8.030  0.00  0.00    +0.241 C 
ATOM     23  O   TRP A   2     -13.174  22.366   8.618  0.00  0.00    -0.273 OA
ATOM     24  N   GLU A   3     -14.283  22.844   6.716  0.00  0.00    -0.297 N 
ATOM     25  H   GLU A   3     -15.073  23.347   6.264  0.00  0.00    +0.150 HD
BRANCH  22  26
ATOM     26  CA  TRP A   2     -15.022  23.895   8.791  0.00  0.00    +0.153 C 
BRANCH  26  29
ATOM     27  C   MET A   1     -14.184  25.965   7.843  0.00  0.00    +0.238 C 
ATOM     28  O   MET A   1     -13.048  25.727   8.268  0.00  0.00    -0.274 OA
ATOM     29  N   TRP A   2     -15.218  25.150   8.071  0.00  0.00    -0.297 N 
ATOM     30  H   TRP A   2     -16.167  25.411   7.734  0.00  0.00    +0.150 HD
BRANCH  27  31
ATOM     31  CA  MET A   1     -14.449  27.219   7.023  0.00  0.00    +0.146 C 
BRANCH  31  32
ATOM     32  N   MET A   1     -15.394  26.955   5.943  0.00  0.00    -0.238 NA
ATOM     33  H   MET A   1     -16.359  27.340   5.987  0.00  0.00    +0.142 HD
ENDBRANCH  31  32
BRANCH  31  34
ATOM     34  CB  MET A   1     -14.947  28.360   7.914  0.00  0.00    +0.038 C 
BRANCH  34  35
ATOM     35  CG  MET A   1     -14.672  29.749   7.359  0.00  0.00    +0.060 C 
BRANCH  35  36
ATOM     36  SD  MET A   1     -12.912  30.128   7.187  0.00  0.00    -0.139 S 
ATOM     37  CE  MET A   1     -12.390  30.254   8.890  0.00  0.00    +0.069 C 
ENDBRANCH  35  36
ENDBRANCH  34  35
ENDBRANCH  31  34
ENDBRANCH  27  31
ENDBRANCH  26  29
BRANCH  26  38
ATOM     38  CB  TRP A   2     -16.372  23.229   9.060  0.00  0.00    +0.057 C 
BRANCH  38  39
ATOM     39  CG  TRP A   2     -16.968  23.591  10.393  0.00  0.00    -0.002 A 
ATOM     40  CD2 TRP A   2     -16.810  22.872  11.618  0.00  0.00    +0.013 A 
ATOM     41  CE2 TRP A   2     -17.537  23.567  12.608  0.00  0.00    +0.056 A 
ATOM     42  CZ2 TRP A   2     -17.593  23.136  13.933  0.00  0.00    +0.017 A 
ATOM     43  CH2 TRP A   2     -16.911  21.995  14.250  0.00  0.00    +0.001 A 
ATOM     44  CZ3 TRP A   2     -16.182  21.281  13.284  0.00  0.00    +0.000 A 
ATOM     45  NE1 TRP A   2     -18.112  24.656  12.007  0.00  0.00    -0.352 N 
ATOM     46  HE1 TRP A   2     -18.714  25.361  12.480  0.00  0.00    +0.166 HD
ATOM     47  CE3 TRP A   2     -16.121  21.708  11.976  0.00  0.00    +0.001 A 
ATOM     48  CD1 TRP A   2     -17.764  24.665  10.678  0.00  0.00    +0.068 A 
ENDBRANCH  38  39
ENDBRANCH  26  38
ENDBRANCH  22  26
ENDBRANCH  21  24
BRANCH  21  49
ATOM     49  CB  GLU A   3     -13.885  21.980   4.466  0.00  0.00    +0.041 C 
BRANCH  49  50
ATOM     50  CG  GLU A   3     -12.929  21.275   3.524  0.00  0.00    +0.116 C 
BRANCH  50  51
ATOM     51  CD  GLU A   3     -13.347  21.399   2.081  0.00  0.00    +0.365 C 
ATOM     52  OE2 GLU A   3     -14.429  21.966   1.824  0.00  0.00    -0.246 OA
ATOM     53  OE1 GLU A   3     -12.595  20.932   1.203  0.00  0.00    -0.246 OA
ENDBRANCH  50  51
ENDBRANCH  49  50
ENDBRANCH  21  49
ENDBRANCH  17  21
ENDBRANCH  16  19
BRANCH  16  54
ATOM     54  CB  ARG A   4     -10.371  25.813   5.503  0.00  0.00    +0.033 C 
BRANCH  54  55
ATOM     55  CG  ARG A   4     -10.432  26.005   3.995  0.00  0.00    +0.045 C 
BRANCH  55  56
ATOM     56  CD  ARG A   4     -10.988  27.357   3.613  0.00  0.00    +0.174 C 
BRANCH  56  57
ATOM     57  NE  ARG A   4      -9.965  28.395   3.589  0.00  0.00    -0.265 N 
ATOM     58  HE  ARG A   4      -9.237  28.380   4.332  0.00  0.00    +0.259 HD
ATOM     59  CZ  ARG A   4      -9.905  29.359   2.676  0.00  0.00    +0.342 C 
ATOM     60  NH2 ARG A   4      -8.941  30.265   2.737  0.00  0.00    -0.292 N 
ATOM     61 HH21 ARG A   4      -8.233  30.221   3.498  0.00  0.00    +0.255 HD
ATOM     62 HH22 ARG A   4      -8.892  31.020   2.024  0.00  0.00    +0.255 HD
ATOM     63  NH1 ARG A   4     -10.809  29.420   1.704  0.00  0.00    -0.292 N 
ATOM     64 HH11 ARG A   4     -11.568  28.711   1.655  0.00  0.00    +0.255 HD
ATOM     65 HH12 ARG A   4     -10.757  30.177   0.992  0.00  0.00    +0.255 HD
ENDBRANCH  56  57
ENDBRANCH  55  56
ENDBRANCH  54  55
ENDBRANCH  16  54
ENDBRANCH  12  16
ENDBRANCH  11  13
BRANCH  11  66
ATOM     66  CB  CYS A   5     -10.797  24.735  10.732  0.00  0.00    +0.098 C 
ATOM     67  SG  CYS A   5     -10.827  26.552  10.624  0.00  0.00    -0.080 S 
ENDBRANCH  11  66
ENDBRANCH   7  11
ENDBRANCH   5   9
ENDBRANCH   1   5
BRANCH   3  68
ATOM     68  CA  HIS A   7      -7.698  20.138   6.898  0.00  0.00    +0.155 C 
BRANCH  68  69
ATOM     69  C   HIS A   7      -6.455  20.560   7.675  0.00  0.00    +0.241 C 
ATOM     70  N   HIS A   8      -6.471  21.764   8.256  0.00  0.00    -0.297 N 
ATOM     71  H   HIS A   8      -7.313  22.370   8.179  0.00  0.00    +0.150 HD
ATOM     72  O   HIS A   7      -5.478  19.808   7.757  0.00  0.00    -0.273 OA
BRANCH  70  73
ATOM     73  CA  HIS A   8      -5.301  22.225   8.999  0.00  0.00    +0.155 C 
BRANCH  73  74
ATOM     74  C   HIS A   8      -5.067  21.376  10.241  0.00  0.00    +0.241 C 
ATOM     75  N   LEU A   9      -6.144  21.030  10.956  0.00  0.00    -0.297 N 
ATOM     76  H   LEU A   9      -7.083  21.371  10.667  0.00  0.00    +0.150 HD
ATOM     77  O   HIS A   8      -3.921  21.041  10.561  0.00  0.00    -0.273 OA
BRANCH  75  78
ATOM     78  CA  LEU A   9      -6.018  20.182  12.134  0.00  0.00    +0.149 C 
BRANCH  78  79
ATOM     79  C   LEU A   9      -5.456  18.814  11.768  0.00  0.00    +0.241 C 
ATOM     80  O   LEU A   9      -4.588  18.280  12.471  0.00  0.00    -0.273 OA
ATOM     81  N   THR A  10      -5.933  18.234  10.666  0.00  0.00    -0.295 N 
ATOM     82  H   THR A  10      -6.650  18.724  10.094  0.00  0.00    +0.150 HD
BRANCH  81  83
ATOM     83  CA  THR A  10      -5.457  16.916  10.255  0.00  0.00    +0.176 C 
BRANCH  83  84
ATOM     84  C   THR A  10      -3.962  16.934   9.982  0.00  0.00    +0.243 C 
ATOM     85  O   THR A  10      -3.240  16.007  10.369  0.00  0.00    -0.273 OA
ATOM     86  N   GLU A  11      -3.478  17.988   9.325  0.00  0.00    -0.297 N 
ATOM     87  H   GLU A  11      -4.124  18.742   9.016  0.00  0.00    +0.150 HD
BRANCH  86  88
ATOM     88  CA  GLU A  11      -2.055  18.095   9.035  0.00  0.00    +0.149 C 
BRANCH  88  89
ATOM     89  C   GLU A  11      -1.236  18.161  10.319  0.00  0.00    +0.241 C 
ATOM     90  N   ALA A  12      -1.690  18.953  11.294  0.00  0.00    -0.297 N 
ATOM     91  H   ALA A  12      -2.559  19.506  11.148  0.00  0.00    +0.150 HD
ATOM     92  O   GLU A  11      -0.202  17.493  10.441  0.00  0.00    -0.273 OA
BRANCH  90  93
ATOM     93  CA  ALA A  12      -0.975  19.048  12.563  0.00  0.00    +0.149 C 
ATOM     94  CB  ALA A  12      -1.595  20.136  13.440  0.00  0.00    +0.031 C 
BRANCH  93  95
ATOM     95  C   ALA A  12      -0.973  17.712  13.297  0.00  0.00    +0.241 C 
ATOM     96  O   ALA A  12       0.038  17.322  13.887  0.00  0.00    -0.273 OA
ATOM     97  N   ILE A  13      -2.099  16.997  13.266  0.00  0.00    -0.298 N 
ATOM     98  H   ILE A  13      -2.933  17.378  12.775  0.00  0.00    +0.150 HD
BRANCH  97  99
ATOM     99  CA  ILE A  13      -2.181  15.686  13.910  0.00  0.00    +0.137 C 
BRANCH  99 100
ATOM    100  C   ILE A  13      -1.178  14.719  13.293  0.00  0.00    +0.227 C 
ATOM    101  O   ILE A  13      -0.576  13.893  13.993  0.00  0.00    -0.286 OA
ENDBRANCH  99 100
BRANCH  99 102
ATOM    102  CB  ILE A  13      -3.625  15.154  13.832  0.00  0.00    +0.026 C 
ATOM    103  CG2 ILE A  13      -3.679  13.666  14.152  0.00  0.00    +0.002 C 
BRANCH 102 104
ATOM    104  CG1 ILE A  13      -4.521  15.951  14.777  0.00  0.00    +0.002 C 
ATOM    105  CD1 ILE A  13      -5.975  15.593  14.679  0.00  0.00    +0.000 C 
ENDBRANCH 102 104
ENDBRANCH  99 102
ENDBRANCH  97  99
ENDBRANCH  93  95
ENDBRANCH  90  93
ENDBRANCH  88  89
BRANCH  88 106
ATOM    106  CB  GLU A  11      -1.801  19.317   8.156  0.00  0.00    +0.041 C 
BRANCH 106 107
ATOM    107  CG  GLU A  11      -0.374  19.455   7.702  0.00  0.00    +0.116 C 
BRANCH 107 108
ATOM    108  CD  GLU A  11      -0.180  20.626   6.765  0.00  0.00    +0.365 C 
ATOM    109  OE2 GLU A  11       0.963  21.123   6.670  0.00  0.00    -0.246 OA
ATOM    110  OE1 GLU A  11      -1.173  21.048   6.126  0.00  0.00    -0.246 OA
ENDBRANCH 107 108
ENDBRANCH 106 107
ENDBRANCH  88 106
ENDBRANCH  86  88
ENDBRANCH  83  84
BRANCH  83 111
ATOM    111  CB  THR A  10      -6.226  16.436   9.022  0.00  0.00    +0.137 C 
ATOM    112  CG2 THR A  10      -5.707  15.080   8.560  0.00  0.00    +0.034 C 
BRANCH 111 113
ATOM    113  OG1 THR A  10      -7.613  16.317   9.350  0.00  0.00    -0.382 OA
ATOM    114  HG1 THR A  10      -7.960  17.199   9.636  0.00  0.00    +0.210 HD
ENDBRANCH 111 113
ENDBRANCH  83 111
ENDBRANCH  81  83
ENDBRANCH  78  79
BRANCH  78 115
ATOM    115  CB  LEU A   9      -7.378  20.035  12.816  0.00  0.00    +0.029 C 
BRANCH 115 116
ATOM    116  CG  LEU A   9      -7.340  19.254  14.134  0.00  0.00    +0.002 C 
ATOM    117  CD2 LEU A   9      -6.416  19.962  15.107  0.00  0.00    +0.000 C 
ATOM    118  CD1 LEU A   9      -8.731  19.091  14.739  0.00  0.00    +0.000 C 
ENDBRANCH 115 116
ENDBRANCH  78 115
ENDBRANCH  75  78
ENDBRANCH  73  74
BRANCH  73 119
ATOM    119  CB  HIS A   8      -5.441  23.701   9.369  0.00  0.00    +0.076 C 
BRANCH 119 120
ATOM    120  CG  HIS A   8      -5.484  24.615   8.185  0.00  0.00    +0.082 A 
ATOM    121  CD2 HIS A   8      -6.328  25.627   7.868  0.00  0.00    +0.115 A 
ATOM    122  NE2 HIS A   8      -5.919  26.130   6.657  0.00  0.00    -0.221 NA
ATOM    123  CE1 HIS A   8      -4.860  25.455   6.246  0.00  0.00    +0.199 A 
ATOM    124  ND1 HIS A   8      -4.577  24.534   7.150  0.00  0.00    -0.227 NA
ENDBRANCH 119 120
ENDBRANCH  73 119
ENDBRANCH  70  73
ENDBRANCH  68  69
BRANCH  68 125
ATOM    125  CB  HIS A   7      -7.757  20.833   5.536  0.00  0.00    +0.076 C 
BRANCH 125 126
ATOM    126  CG  HIS A   7      -6.434  20.938   4.845  0.00  0.00    +0.082 A 
ATOM    127  CD2 HIS A   7      -5.690  22.019   4.506  0.00  0.00    +0.115 A 
ATOM    128  NE2 HIS A   7      -4.562  21.554   3.876  0.00  0.00    -0.221 NA
ATOM    129  CE1 HIS A   7      -4.608  20.234   3.831  0.00  0.00    +0.199 A 
ATOM    130  ND1 HIS A   7      -5.729  19.837   4.408  0.00  0.00    -0.227 NA
ENDBRANCH 125 126
ENDBRANCH  68 125
ENDBRANCH   3  68
TORSDOF 52
REMARK  Name = ../refined-set-2016/4ymq/4ymq_pocket.pdb
REMARK  307 active torsions:
REMARK  status: ('A' for Active; 'I' for Inactive)
REMARK    1  A    between atoms: _1  and  _3
REMARK    2  A    between atoms: _3  and  _4
REMARK    3  A    between atoms: _3  and  _6
REMARK    4  A    between atoms: _6  and  _7
REMARK    5  A    between atoms: _12  and  _13
REMARK    6  A    between atoms: _15  and  _17
REMARK    7  A    between atoms: _17  and  _18
REMARK    8  A    between atoms: _17  and  _20
REMARK    9  A    between atoms: _20  and  _21
REMARK   10  A    between atoms: _24  and  _26
REMARK   11  A    between atoms: _26  and  _27
REMARK   12  A    between atoms: _26  and  _29
REMARK   13  A    between atoms: _31  and  _33
REMARK   14  A    between atoms: _33  and  _34
REMARK   15  A    between atoms: _33  and  _36
REMARK   16  A    between atoms: _36  and  _37
REMARK   17  A    between atoms: _37  and  _38
REMARK   18  A    between atoms: _43  and  _45
REMARK   19  A    between atoms: _45  and  _46
REMARK   20  A    between atoms: _45  and  _48
REMARK   21  A    between atoms: _48  and  _49
REMARK   22  A    between atoms: _52  and  _54
REMARK   23  A    between atoms: _54  and  _55
REMARK   24  A    between atoms: _54  and  _57
REMARK   25  A    between atoms: _57  and  _58
REMARK   26  A    between atoms: _58  and  _59
REMARK   27  A    between atoms: _59  and  _60
REMARK   28  A    between atoms: _69  and  _71
REMARK   29  A    between atoms: _71  and  _72
REMARK   30  A    between atoms: _71  and  _74
REMARK   31  A    between atoms: _74  and  _75
REMARK   32  A    between atoms: _78  and  _80
REMARK   33  A    between atoms: _80  and  _81
REMARK   34  A    between atoms: _80  and  _83
REMARK   35  A    between atoms: _83  and  _84
REMARK   36  A    between atoms: _87  and  _89
REMARK   37  A    between atoms: _89  and  _90
REMARK   38  A    between atoms: _89  and  _92
REMARK   39  A    between atoms: _92  and  _93
REMARK   40  A    between atoms: _99  and  _101
REMARK   41  A    between atoms: _101  and  _102
REMARK   42  A    between atoms: _101  and  _104
REMARK   43  A    between atoms: _104  and  _105
REMARK   44  A    between atoms: _105  and  _106
REMARK   45  A    between atoms: _108  and  _110
REMARK   46  A    between atoms: _110  and  _111
REMARK   47  A    between atoms: _110  and  _113
REMARK   48  A    between atoms: _113  and  _114
REMARK   49  A    between atoms: _124  and  _126
REMARK   50  A    between atoms: _126  and  _127
REMARK   51  A    between atoms: _126  and  _129
REMARK   52  A    between atoms: _129  and  _130
REMARK   53  A    between atoms: _130  and  _131
REMARK   54  A    between atoms: _134  and  _136
REMARK   55  A    between atoms: _136  and  _137
REMARK   56  A    between atoms: _136  and  _139
REMARK   57  A    between atoms: _139  and  _140
REMARK   58  A    between atoms: _140  and  _141
REMARK   59  A    between atoms: _141  and  _142
REMARK   60  A    between atoms: _151  and  _153
REMARK   61  A    between atoms: _153  and  _154
REMARK   62  A    between atoms: _153  and  _156
REMARK   63  A    between atoms: _158  and  _160
REMARK   64  A    between atoms: _160  and  _161
REMARK   65  A    between atoms: _164  and  _166
REMARK   66  A    between atoms: _166  and  _167
REMARK   67  A    between atoms: _166  and  _169
REMARK   68  A    between atoms: _169  and  _170
REMARK   69  A    between atoms: _175  and  _177
REMARK   70  A    between atoms: _177  and  _178
REMARK   71  A    between atoms: _177  and  _180
REMARK   72  A    between atoms: _180  and  _181
REMARK   73  A    between atoms: _186  and  _188
REMARK   74  A    between atoms: _188  and  _189
REMARK   75  A    between atoms: _188  and  _191
REMARK   76  A    between atoms: _191  and  _192
REMARK   77  A    between atoms: _195  and  _197
REMARK   78  A    between atoms: _197  and  _198
REMARK   79  A    between atoms: _197  and  _200
REMARK   80  A    between atoms: _200  and  _201
REMARK   81  A    between atoms: _204  and  _206
REMARK   82  A    between atoms: _206  and  _207
REMARK   83  A    between atoms: _206  and  _209
REMARK   84  A    between atoms: _209  and  _210
REMARK   85  A    between atoms: _210  and  _211
REMARK   86  A    between atoms: _214  and  _216
REMARK   87  A    between atoms: _216  and  _217
REMARK   88  A    between atoms: _220  and  _222
REMARK   89  A    between atoms: _222  and  _223
REMARK   90  A    between atoms: _222  and  _225
REMARK   91  A    between atoms: _225  and  _226
REMARK   92  A    between atoms: _229  and  _231
REMARK   93  A    between atoms: _231  and  _232
REMARK   94  A    between atoms: _231  and  _234
REMARK   95  A    between atoms: _234  and  _235
REMARK   96  A    between atoms: _240  and  _241
REMARK   97  A    between atoms: _243  and  _245
REMARK   98  A    between atoms: _245  and  _246
REMARK   99  A    between atoms: _245  and  _248
REMARK  100  A    between atoms: _251  and  _253
REMARK  101  A    between atoms: _253  and  _254
REMARK  102  A    between atoms: _253  and  _256
REMARK  103  A    between atoms: _256  and  _257
REMARK  104  A    between atoms: _257  and  _258
REMARK  105  A    between atoms: _260  and  _262
REMARK  106  A    between atoms: _262  and  _263
REMARK  107  A    between atoms: _262  and  _265
REMARK  108  A    between atoms: _268  and  _270
REMARK  109  A    between atoms: _270  and  _271
REMARK  110  A    between atoms: _270  and  _273
REMARK  111  A    between atoms: _276  and  _278
REMARK  112  A    between atoms: _278  and  _279
REMARK  113  A    between atoms: _278  and  _281
REMARK  114  A    between atoms: _281  and  _282
REMARK  115  A    between atoms: _285  and  _287
REMARK  116  A    between atoms: _287  and  _288
REMARK  117  A    between atoms: _287  and  _290
REMARK  118  A    between atoms: _293  and  _295
REMARK  119  A    between atoms: _295  and  _296
REMARK  120  A    between atoms: _295  and  _298
REMARK  121  A    between atoms: _298  and  _299
REMARK  122  A    between atoms: _299  and  _300
REMARK  123  A    between atoms: _300  and  _301
REMARK  124  A    between atoms: _310  and  _312
REMARK  125  A    between atoms: _312  and  _313
REMARK  126  A    between atoms: _312  and  _315
REMARK  127  A    between atoms: _315  and  _316
REMARK  128  A    between atoms: _316  and  _317
REMARK  129  A    between atoms: _319  and  _321
REMARK  130  A    between atoms: _321  and  _322
REMARK  131  A    between atoms: _321  and  _324
REMARK  132  A    between atoms: _326  and  _328
REMARK  133  A    between atoms: _328  and  _329
REMARK  134  A    between atoms: _328  and  _331
REMARK  135  A    between atoms: _331  and  _332
REMARK  136  A    between atoms: _332  and  _333
REMARK  137  A    between atoms: _333  and  _334
REMARK  138  A    between atoms: _343  and  _345
REMARK  139  A    between atoms: _345  and  _346
REMARK  140  A    between atoms: _349  and  _351
REMARK  141  A    between atoms: _351  and  _352
REMARK  142  A    between atoms: _351  and  _354
REMARK  143  A    between atoms: _354  and  _355
REMARK  144  A    between atoms: _360  and  _361
REMARK  145  A    between atoms: _363  and  _365
REMARK  146  A    between atoms: _365  and  _366
REMARK  147  A    between atoms: _365  and  _368
REMARK  148  A    between atoms: _368  and  _369
REMARK  149  A    between atoms: _374  and  _376
REMARK  150  A    between atoms: _376  and  _377
REMARK  151  A    between atoms: _376  and  _379
REMARK  152  A    between atoms: _379  and  _380
REMARK  153  A    between atoms: _380  and  _381
REMARK  154  A    between atoms: _381  and  _382
REMARK  155  A    between atoms: _391  and  _393
REMARK  156  A    between atoms: _393  and  _394
REMARK  157  A    between atoms: _393  and  _396
REMARK  158  A    between atoms: _396  and  _397
REMARK  159  A    between atoms: _400  and  _402
REMARK  160  A    between atoms: _402  and  _403
REMARK  161  A    between atoms: _402  and  _405
REMARK  162  A    between atoms: _408  and  _410
REMARK  163  A    between atoms: _410  and  _411
REMARK  164  A    between atoms: _410  and  _413
REMARK  165  A    between atoms: _413  and  _414
REMARK  166  A    between atoms: _420  and  _422
REMARK  167  A    between atoms: _422  and  _423
REMARK  168  A    between atoms: _422  and  _425
REMARK  169  A    between atoms: _425  and  _426
REMARK  170  A    between atoms: _432  and  _434
REMARK  171  A    between atoms: _434  and  _435
REMARK  172  A    between atoms: _434  and  _437
REMARK  173  A    between atoms: _437  and  _438
REMARK  174  A    between atoms: _438  and  _439
REMARK  175  A    between atoms: _442  and  _444
REMARK  176  A    between atoms: _444  and  _445
REMARK  177  A    between atoms: _447  and  _449
REMARK  178  A    between atoms: _449  and  _450
REMARK  179  A    between atoms: _449  and  _452
REMARK  180  A    between atoms: _452  and  _453
REMARK  181  A    between atoms: _453  and  _454
REMARK  182  A    between atoms: _454  and  _455
REMARK  183  A    between atoms: _455  and  _456
REMARK  184  A    between atoms: _460  and  _462
REMARK  185  A    between atoms: _462  and  _463
REMARK  186  A    between atoms: _462  and  _465
REMARK  187  A    between atoms: _465  and  _466
REMARK  188  A    between atoms: _471  and  _472
REMARK  189  A    between atoms: _474  and  _476
REMARK  190  A    between atoms: _476  and  _477
REMARK  191  A    between atoms: _479  and  _481
REMARK  192  A    between atoms: _481  and  _482
REMARK  193  A    between atoms: _484  and  _486
REMARK  194  A    between atoms: _486  and  _487
REMARK  195  A    between atoms: _486  and  _489
REMARK  196  A    between atoms: _489  and  _490
REMARK  197  A    between atoms: _490  and  _491
REMARK  198  A    between atoms: _493  and  _495
REMARK  199  A    between atoms: _495  and  _496
REMARK  200  A    between atoms: _495  and  _498
REMARK  201  A    between atoms: _498  and  _499
REMARK  202  A    between atoms: _502  and  _504
REMARK  203  A    between atoms: _504  and  _505
REMARK  204  A    between atoms: _504  and  _507
REMARK  205  A    between atoms: _507  and  _508
REMARK  206  A    between atoms: _514  and  _516
REMARK  207  A    between atoms: _516  and  _517
REMARK  208  A    between atoms: _516  and  _519
REMARK  209  A    between atoms: _519  and  _520
REMARK  210  A    between atoms: _523  and  _525
REMARK  211  A    between atoms: _525  and  _526
REMARK  212  A    between atoms: _525  and  _528
REMARK  213  A    between atoms: _530  and  _532
REMARK  214  A    between atoms: _532  and  _533
REMARK  215  A    between atoms: _532  and  _535
REMARK  216  A    between atoms: _535  and  _536
REMARK  217  A    between atoms: _539  and  _541
REMARK  218  A    between atoms: _541  and  _542
REMARK  219  A    between atoms: _541  and  _544
REMARK  220  A    between atoms: _544  and  _545
REMARK  221  A    between atoms: _548  and  _550
REMARK  222  A    between atoms: _550  and  _551
REMARK  223  A    between atoms: _550  and  _553
REMARK  224  A    between atoms: _553  and  _554
REMARK  225  A    between atoms: _556  and  _558
REMARK  226  A    between atoms: _558  and  _559
REMARK  227  A    between atoms: _558  and  _561
REMARK  228  A    between atoms: _561  and  _562
REMARK  229  A    between atoms: _564  and  _566
REMARK  230  A    between atoms: _566  and  _567
REMARK  231  A    between atoms: _566  and  _569
REMARK  232  A    between atoms: _569  and  _570
REMARK  233  A    between atoms: _573  and  _575
REMARK  234  A    between atoms: _575  and  _576
REMARK  235  A    between atoms: _575  and  _578
REMARK  236  A    between atoms: _578  and  _579
REMARK  237  A    between atoms: _585  and  _587
REMARK  238  A    between atoms: _587  and  _588
REMARK  239  A    between atoms: _587  and  _590
REMARK  240  A    between atoms: _590  and  _591
REMARK  241  A    between atoms: _594  and  _596
REMARK  242  A    between atoms: _596  and  _597
REMARK  243  A    between atoms: _596  and  _599
REMARK  244  A    between atoms: _599  and  _600
REMARK  245  A    between atoms: _606  and  _608
REMARK  246  A    between atoms: _608  and  _609
REMARK  247  A    between atoms: _608  and  _611
REMARK  248  A    between atoms: _611  and  _612
REMARK  249  A    between atoms: _614  and  _616
REMARK  250  A    between atoms: _616  and  _617
REMARK  251  A    between atoms: _616  and  _619
REMARK  252  A    between atoms: _619  and  _620
REMARK  253  A    between atoms: _625  and  _627
REMARK  254  A    between atoms: _627  and  _628
REMARK  255  A    between atoms: _627  and  _630
REMARK  256  A    between atoms: _630  and  _631
REMARK  257  A    between atoms: _633  and  _635
REMARK  258  A    between atoms: _635  and  _636
REMARK  259  A    between atoms: _635  and  _638
REMARK  260  A    between atoms: _638  and  _639
REMARK  261  A    between atoms: _639  and  _640
REMARK  262  A    between atoms: _643  and  _645
REMARK  263  A    between atoms: _645  and  _646
REMARK  264  A    between atoms: _645  and  _648
REMARK  265  A    between atoms: _648  and  _649
REMARK  266  A    between atoms: _652  and  _654
REMARK  267  A    between atoms: _654  and  _655
REMARK  268  A    between atoms: _654  and  _657
REMARK  269  A    between atoms: _657  and  _658
REMARK  270  A    between atoms: _661  and  _663
REMARK  271  A    between atoms: _663  and  _664
REMARK  272  A    between atoms: _663  and  _666
REMARK  273  A    between atoms: _668  and  _670
REMARK  274  A    between atoms: _670  and  _671
REMARK  275  A    between atoms: _670  and  _673
REMARK  276  A    between atoms: _673  and  _674
REMARK  277  A    between atoms: _674  and  _675
REMARK  278  A    between atoms: _680  and  _682
REMARK  279  A    between atoms: _682  and  _683
REMARK  280  A    between atoms: _682  and  _685
REMARK  281  A    between atoms: _685  and  _686
REMARK  282  A    between atoms: _691  and  _693
REMARK  283  A    between atoms: _693  and  _694
REMARK  284  A    between atoms: _693  and  _696
REMARK  285  A    between atoms: _699  and  _701
REMARK  286  A    between atoms: _701  and  _702
REMARK  287  A    between atoms: _701  and  _704
REMARK  288  A    between atoms: _704  and  _705
REMARK  289  A    between atoms: _705  and  _706
REMARK  290  A    between atoms: _706  and  _707
REMARK  291  A    between atoms: _716  and  _718
REMARK  292  A    between atoms: _718  and  _719
REMARK  293  A    between atoms: _718  and  _721
REMARK  294  A    between atoms: _721  and  _722
REMARK  295  A    between atoms: _725  and  _727
REMARK  296  A    between atoms: _727  and  _728
REMARK  297  A    between atoms: _727  and  _730
REMARK  298  A    between atoms: _730  and  _731
REMARK  299  A    between atoms: _737  and  _739
REMARK  300  A    between atoms: _739  and  _740
REMARK  301  A    between atoms: _739  and  _742
REMARK  302  A    between atoms: _742  and  _743
REMARK  303  A    between atoms: _748  and  _749
REMARK  304  A    between atoms: _751  and  _753
REMARK  305  A    between atoms: _753  and  _754
REMARK  306  A    between atoms: _753  and  _756
REMARK  307  A    between atoms: _756  and  _757
REMARK                            x       y       z     vdW  Elec       q    Type
REMARK                         _______ _______ _______ _____ _____    ______ ____
ROOT
ATOM      1  CA  TYR A   1       3.048  15.584  12.888  0.00  0.00    +0.149 C 
ENDROOT
BRANCH   1   2
ATOM      2  C   TYR A   1       3.078  15.035  14.311  0.00  0.00    +0.239 C 
ATOM      3  N   VAL A   2       1.940  15.049  15.015  0.00  0.00    -0.298 N 
ATOM      4  H   VAL A   2       1.084  15.476  14.608  0.00  0.00    +0.150 HD
ATOM      5  O   TYR A   1       4.134  14.595  14.777  0.00  0.00    -0.274 OA
BRANCH   3   6
ATOM      6  CA  VAL A   2       1.897  14.466  16.353  0.00  0.00    +0.137 C 
BRANCH   6   7
ATOM      7  CB  VAL A   2       0.617  14.897  17.101  0.00  0.00    +0.026 C 
ATOM      8  CG2 VAL A   2       0.507  14.190  18.442  0.00  0.00    +0.002 C 
ATOM      9  CG1 VAL A   2       0.604  16.407  17.290  0.00  0.00    +0.002 C 
ENDBRANCH   6   7
BRANCH   6  10
ATOM     10  C   VAL A   2       2.056  12.954  16.283  0.00  0.00    +0.227 C 
ATOM     11  O   VAL A   2       2.679  12.346  17.164  0.00  0.00    -0.286 OA
ENDBRANCH   6  10
ENDBRANCH   3   6
ENDBRANCH   1   2
BRANCH   1  12
ATOM     12  N   TYR A   1       1.756  15.359  12.247  0.00  0.00    -0.238 NA
ATOM     13  H   TYR A   1       1.114  16.160  12.079  0.00  0.00    +0.142 HD
ENDBRANCH   1  12
BRANCH   1  14
ATOM     14  CB  TYR A   1       3.408  17.070  12.875  0.00  0.00    +0.053 C 
BRANCH  14  15
ATOM     15  CG  TYR A   1       3.869  17.571  11.524  0.00  0.00    -0.020 A 
ATOM     16  CD2 TYR A   1       5.216  17.563  11.177  0.00  0.00    -0.001 A 
ATOM     17  CE2 TYR A   1       5.642  18.017   9.940  0.00  0.00    +0.036 A 
ATOM     18  CZ  TYR A   1       4.716  18.492   9.035  0.00  0.00    +0.134 A 
ATOM     19  CE1 TYR A   1       3.377  18.515   9.353  0.00  0.00    +0.036 A 
ATOM     20  CD1 TYR A   1       2.957  18.056  10.594  0.00  0.00    -0.001 A 
BRANCH  18  21
ATOM     21  OH  TYR A   1       5.129  18.946   7.811  0.00  0.00    -0.506 OA
ATOM     22  HH  TYR A   1       4.343  19.248   7.290  0.00  0.00    +0.292 HD
ENDBRANCH  18  21
ENDBRANCH  14  15
ENDBRANCH   1  14
TORSDOF 8
REMARK  Name = ../refined-set-2016/4ymq/4ymq_pocket.pdb
REMARK  307 active torsions:
REMARK  status: ('A' for Active; 'I' for Inactive)
REMARK    1  A    between atoms: _1  and  _3
REMARK    2  A    between atoms: _3  and  _4
REMARK    3  A    between atoms: _3  and  _6
REMARK    4  A    between atoms: _6  and  _7
REMARK    5  A    between atoms: _12  and  _13
REMARK    6  A    between atoms: _15  and  _17
REMARK    7  A    between atoms: _17  and  _18
REMARK    8  A    between atoms: _17  and  _20
REMARK    9  A    between atoms: _20  and  _21
REMARK   10  A    between atoms: _24  and  _26
REMARK   11  A    between atoms: _26  and  _27
REMARK   12  A    between atoms: _26  and  _29
REMARK   13  A    between atoms: _31  and  _33
REMARK   14  A    between atoms: _33  and  _34
REMARK   15  A    between atoms: _33  and  _36
REMARK   16  A    between atoms: _36  and  _37
REMARK   17  A    between atoms: _37  and  _38
REMARK   18  A    between atoms: _43  and  _45
REMARK   19  A    between atoms: _45  and  _46
REMARK   20  A    between atoms: _45  and  _48
REMARK   21  A    between atoms: _48  and  _49
REMARK   22  A    between atoms: _52  and  _54
REMARK   23  A    between atoms: _54  and  _55
REMARK   24  A    between atoms: _54  and  _57
REMARK   25  A    between atoms: _57  and  _58
REMARK   26  A    between atoms: _58  and  _59
REMARK   27  A    between atoms: _59  and  _60
REMARK   28  A    between atoms: _69  and  _71
REMARK   29  A    between atoms: _71  and  _72
REMARK   30  A    between atoms: _71  and  _74
REMARK   31  A    between atoms: _74  and  _75
REMARK   32  A    between atoms: _78  and  _80
REMARK   33  A    between atoms: _80  and  _81
REMARK   34  A    between atoms: _80  and  _83
REMARK   35  A    between atoms: _83  and  _84
REMARK   36  A    between atoms: _87  and  _89
REMARK   37  A    between atoms: _89  and  _90
REMARK   38  A    between atoms: _89  and  _92
REMARK   39  A    between atoms: _92  and  _93
REMARK   40  A    between atoms: _99  and  _101
REMARK   41  A    between atoms: _101  and  _102
REMARK   42  A    between atoms: _101  and  _104
REMARK   43  A    between atoms: _104  and  _105
REMARK   44  A    between atoms: _105  and  _106
REMARK   45  A    between atoms: _108  and  _110
REMARK   46  A    between atoms: _110  and  _111
REMARK   47  A    between atoms: _110  and  _113
REMARK   48  A    between atoms: _113  and  _114
REMARK   49  A    between atoms: _124  and  _126
REMARK   50  A    between atoms: _126  and  _127
REMARK   51  A    between atoms: _126  and  _129
REMARK   52  A    between atoms: _129  and  _130
REMARK   53  A    between atoms: _130  and  _131
REMARK   54  A    between atoms: _134  and  _136
REMARK   55  A    between atoms: _136  and  _137
REMARK   56  A    between atoms: _136  and  _139
REMARK   57  A    between atoms: _139  and  _140
REMARK   58  A    between atoms: _140  and  _141
REMARK   59  A    between atoms: _141  and  _142
REMARK   60  A    between atoms: _151  and  _153
REMARK   61  A    between atoms: _153  and  _154
REMARK   62  A    between atoms: _153  and  _156
REMARK   63  A    between atoms: _158  and  _160
REMARK   64  A    between atoms: _160  and  _161
REMARK   65  A    between atoms: _164  and  _166
REMARK   66  A    between atoms: _166  and  _167
REMARK   67  A    between atoms: _166  and  _169
REMARK   68  A    between atoms: _169  and  _170
REMARK   69  A    between atoms: _175  and  _177
REMARK   70  A    between atoms: _177  and  _178
REMARK   71  A    between atoms: _177  and  _180
REMARK   72  A    between atoms: _180  and  _181
REMARK   73  A    between atoms: _186  and  _188
REMARK   74  A    between atoms: _188  and  _189
REMARK   75  A    between atoms: _188  and  _191
REMARK   76  A    between atoms: _191  and  _192
REMARK   77  A    between atoms: _195  and  _197
REMARK   78  A    between atoms: _197  and  _198
REMARK   79  A    between atoms: _197  and  _200
REMARK   80  A    between atoms: _200  and  _201
REMARK   81  A    between atoms: _204  and  _206
REMARK   82  A    between atoms: _206  and  _207
REMARK   83  A    between atoms: _206  and  _209
REMARK   84  A    between atoms: _209  and  _210
REMARK   85  A    between atoms: _210  and  _211
REMARK   86  A    between atoms: _214  and  _216
REMARK   87  A    between atoms: _216  and  _217
REMARK   88  A    between atoms: _220  and  _222
REMARK   89  A    between atoms: _222  and  _223
REMARK   90  A    between atoms: _222  and  _225
REMARK   91  A    between atoms: _225  and  _226
REMARK   92  A    between atoms: _229  and  _231
REMARK   93  A    between atoms: _231  and  _232
REMARK   94  A    between atoms: _231  and  _234
REMARK   95  A    between atoms: _234  and  _235
REMARK   96  A    between atoms: _240  and  _241
REMARK   97  A    between atoms: _243  and  _245
REMARK   98  A    between atoms: _245  and  _246
REMARK   99  A    between atoms: _245  and  _248
REMARK  100  A    between atoms: _251  and  _253
REMARK  101  A    between atoms: _253  and  _254
REMARK  102  A    between atoms: _253  and  _256
REMARK  103  A    between atoms: _256  and  _257
REMARK  104  A    between atoms: _257  and  _258
REMARK  105  A    between atoms: _260  and  _262
REMARK  106  A    between atoms: _262  and  _263
REMARK  107  A    between atoms: _262  and  _265
REMARK  108  A    between atoms: _268  and  _270
REMARK  109  A    between atoms: _270  and  _271
REMARK  110  A    between atoms: _270  and  _273
REMARK  111  A    between atoms: _276  and  _278
REMARK  112  A    between atoms: _278  and  _279
REMARK  113  A    between atoms: _278  and  _281
REMARK  114  A    between atoms: _281  and  _282
REMARK  115  A    between atoms: _285  and  _287
REMARK  116  A    between atoms: _287  and  _288
REMARK  117  A    between atoms: _287  and  _290
REMARK  118  A    between atoms: _293  and  _295
REMARK  119  A    between atoms: _295  and  _296
REMARK  120  A    between atoms: _295  and  _298
REMARK  121  A    between atoms: _298  and  _299
REMARK  122  A    between atoms: _299  and  _300
REMARK  123  A    between atoms: _300  and  _301
REMARK  124  A    between atoms: _310  and  _312
REMARK  125  A    between atoms: _312  and  _313
REMARK  126  A    between atoms: _312  and  _315
REMARK  127  A    between atoms: _315  and  _316
REMARK  128  A    between atoms: _316  and  _317
REMARK  129  A    between atoms: _319  and  _321
REMARK  130  A    between atoms: _321  and  _322
REMARK  131  A    between atoms: _321  and  _324
REMARK  132  A    between atoms: _326  and  _328
REMARK  133  A    between atoms: _328  and  _329
REMARK  134  A    between atoms: _328  and  _331
REMARK  135  A    between atoms: _331  and  _332
REMARK  136  A    between atoms: _332  and  _333
REMARK  137  A    between atoms: _333  and  _334
REMARK  138  A    between atoms: _343  and  _345
REMARK  139  A    between atoms: _345  and  _346
REMARK  140  A    between atoms: _349  and  _351
REMARK  141  A    between atoms: _351  and  _352
REMARK  142  A    between atoms: _351  and  _354
REMARK  143  A    between atoms: _354  and  _355
REMARK  144  A    between atoms: _360  and  _361
REMARK  145  A    between atoms: _363  and  _365
REMARK  146  A    between atoms: _365  and  _366
REMARK  147  A    between atoms: _365  and  _368
REMARK  148  A    between atoms: _368  and  _369
REMARK  149  A    between atoms: _374  and  _376
REMARK  150  A    between atoms: _376  and  _377
REMARK  151  A    between atoms: _376  and  _379
REMARK  152  A    between atoms: _379  and  _380
REMARK  153  A    between atoms: _380  and  _381
REMARK  154  A    between atoms: _381  and  _382
REMARK  155  A    between atoms: _391  and  _393
REMARK  156  A    between atoms: _393  and  _394
REMARK  157  A    between atoms: _393  and  _396
REMARK  158  A    between atoms: _396  and  _397
REMARK  159  A    between atoms: _400  and  _402
REMARK  160  A    between atoms: _402  and  _403
REMARK  161  A    between atoms: _402  and  _405
REMARK  162  A    between atoms: _408  and  _410
REMARK  163  A    between atoms: _410  and  _411
REMARK  164  A    between atoms: _410  and  _413
REMARK  165  A    between atoms: _413  and  _414
REMARK  166  A    between atoms: _420  and  _422
REMARK  167  A    between atoms: _422  and  _423
REMARK  168  A    between atoms: _422  and  _425
REMARK  169  A    between atoms: _425  and  _426
REMARK  170  A    between atoms: _432  and  _434
REMARK  171  A    between atoms: _434  and  _435
REMARK  172  A    between atoms: _434  and  _437
REMARK  173  A    between atoms: _437  and  _438
REMARK  174  A    between atoms: _438  and  _439
REMARK  175  A    between atoms: _442  and  _444
REMARK  176  A    between atoms: _444  and  _445
REMARK  177  A    between atoms: _447  and  _449
REMARK  178  A    between atoms: _449  and  _450
REMARK  179  A    between atoms: _449  and  _452
REMARK  180  A    between atoms: _452  and  _453
REMARK  181  A    between atoms: _453  and  _454
REMARK  182  A    between atoms: _454  and  _455
REMARK  183  A    between atoms: _455  and  _456
REMARK  184  A    between atoms: _460  and  _462
REMARK  185  A    between atoms: _462  and  _463
REMARK  186  A    between atoms: _462  and  _465
REMARK  187  A    between atoms: _465  and  _466
REMARK  188  A    between atoms: _471  and  _472
REMARK  189  A    between atoms: _474  and  _476
REMARK  190  A    between atoms: _476  and  _477
REMARK  191  A    between atoms: _479  and  _481
REMARK  192  A    between atoms: _481  and  _482
REMARK  193  A    between atoms: _484  and  _486
REMARK  194  A    between atoms: _486  and  _487
REMARK  195  A    between atoms: _486  and  _489
REMARK  196  A    between atoms: _489  and  _490
REMARK  197  A    between atoms: _490  and  _491
REMARK  198  A    between atoms: _493  and  _495
REMARK  199  A    between atoms: _495  and  _496
REMARK  200  A    between atoms: _495  and  _498
REMARK  201  A    between atoms: _498  and  _499
REMARK  202  A    between atoms: _502  and  _504
REMARK  203  A    between atoms: _504  and  _505
REMARK  204  A    between atoms: _504  and  _507
REMARK  205  A    between atoms: _507  and  _508
REMARK  206  A    between atoms: _514  and  _516
REMARK  207  A    between atoms: _516  and  _517
REMARK  208  A    between atoms: _516  and  _519
REMARK  209  A    between atoms: _519  and  _520
REMARK  210  A    between atoms: _523  and  _525
REMARK  211  A    between atoms: _525  and  _526
REMARK  212  A    between atoms: _525  and  _528
REMARK  213  A    between atoms: _530  and  _532
REMARK  214  A    between atoms: _532  and  _533
REMARK  215  A    between atoms: _532  and  _535
REMARK  216  A    between atoms: _535  and  _536
REMARK  217  A    between atoms: _539  and  _541
REMARK  218  A    between atoms: _541  and  _542
REMARK  219  A    between atoms: _541  and  _544
REMARK  220  A    between atoms: _544  and  _545
REMARK  221  A    between atoms: _548  and  _550
REMARK  222  A    between atoms: _550  and  _551
REMARK  223  A    between atoms: _550  and  _553
REMARK  224  A    between atoms: _553  and  _554
REMARK  225  A    between atoms: _556  and  _558
REMARK  226  A    between atoms: _558  and  _559
REMARK  227  A    between atoms: _558  and  _561
REMARK  228  A    between atoms: _561  and  _562
REMARK  229  A    between atoms: _564  and  _566
REMARK  230  A    between atoms: _566  and  _567
REMARK  231  A    between atoms: _566  and  _569
REMARK  232  A    between atoms: _569  and  _570
REMARK  233  A    between atoms: _573  and  _575
REMARK  234  A    between atoms: _575  and  _576
REMARK  235  A    between atoms: _575  and  _578
REMARK  236  A    between atoms: _578  and  _579
REMARK  237  A    between atoms: _585  and  _587
REMARK  238  A    between atoms: _587  and  _588
REMARK  239  A    between atoms: _587  and  _590
REMARK  240  A    between atoms: _590  and  _591
REMARK  241  A    between atoms: _594  and  _596
REMARK  242  A    between atoms: _596  and  _597
REMARK  243  A    between atoms: _596  and  _599
REMARK  244  A    between atoms: _599  and  _600
REMARK  245  A    between atoms: _606  and  _608
REMARK  246  A    between atoms: _608  and  _609
REMARK  247  A    between atoms: _608  and  _611
REMARK  248  A    between atoms: _611  and  _612
REMARK  249  A    between atoms: _614  and  _616
REMARK  250  A    between atoms: _616  and  _617
REMARK  251  A    between atoms: _616  and  _619
REMARK  252  A    between atoms: _619  and  _620
REMARK  253  A    between atoms: _625  and  _627
REMARK  254  A    between atoms: _627  and  _628
REMARK  255  A    between atoms: _627  and  _630
REMARK  256  A    between atoms: _630  and  _631
REMARK  257  A    between atoms: _633  and  _635
REMARK  258  A    between atoms: _635  and  _636
REMARK  259  A    between atoms: _635  and  _638
REMARK  260  A    between atoms: _638  and  _639
REMARK  261  A    between atoms: _639  and  _640
REMARK  262  A    between atoms: _643  and  _645
REMARK  263  A    between atoms: _645  and  _646
REMARK  264  A    between atoms: _645  and  _648
REMARK  265  A    between atoms: _648  and  _649
REMARK  266  A    between atoms: _652  and  _654
REMARK  267  A    between atoms: _654  and  _655
REMARK  268  A    between atoms: _654  and  _657
REMARK  269  A    between atoms: _657  and  _658
REMARK  270  A    between atoms: _661  and  _663
REMARK  271  A    between atoms: _663  and  _664
REMARK  272  A    between atoms: _663  and  _666
REMARK  273  A    between atoms: _668  and  _670
REMARK  274  A    between atoms: _670  and  _671
REMARK  275  A    between atoms: _670  and  _673
REMARK  276  A    between atoms: _673  and  _674
REMARK  277  A    between atoms: _674  and  _675
REMARK  278  A    between atoms: _680  and  _682
REMARK  279  A    between atoms: _682  and  _683
REMARK  280  A    between atoms: _682  and  _685
REMARK  281  A    between atoms: _685  and  _686
REMARK  282  A    between atoms: _691  and  _693
REMARK  283  A    between atoms: _693  and  _694
REMARK  284  A    between atoms: _693  and  _696
REMARK  285  A    between atoms: _699  and  _701
REMARK  286  A    between atoms: _701  and  _702
REMARK  287  A    between atoms: _701  and  _704
REMARK  288  A    between atoms: _704  and  _705
REMARK  289  A    between atoms: _705  and  _706
REMARK  290  A    between atoms: _706  and  _707
REMARK  291  A    between atoms: _716  and  _718
REMARK  292  A    between atoms: _718  and  _719
REMARK  293  A    between atoms: _718  and  _721
REMARK  294  A    between atoms: _721  and  _722
REMARK  295  A    between atoms: _725  and  _727
REMARK  296  A    between atoms: _727  and  _728
REMARK  297  A    between atoms: _727  and  _730
REMARK  298  A    between atoms: _730  and  _731
REMARK  299  A    between atoms: _737  and  _739
REMARK  300  A    between atoms: _739  and  _740
REMARK  301  A    between atoms: _739  and  _742
REMARK  302  A    between atoms: _742  and  _743
REMARK  303  A    between atoms: _748  and  _749
REMARK  304  A    between atoms: _751  and  _753
REMARK  305  A    between atoms: _753  and  _754
REMARK  306  A    between atoms: _753  and  _756
REMARK  307  A    between atoms: _756  and  _757
REMARK                            x       y       z     vdW  Elec       q    Type
REMARK                         _______ _______ _______ _____ _____    ______ ____
ROOT
ATOM      1  CA  MET A   1      -5.777  16.522  19.789  0.00  0.00    +0.134 C 
ENDROOT
BRANCH   1   2
ATOM      2  N   MET A   1      -5.171  15.195  19.753  0.00  0.00    -0.239 NA
ATOM      3  H   MET A   1      -5.769  14.352  19.868  0.00  0.00    +0.142 HD
ENDBRANCH   1   2
BRANCH   1   4
ATOM      4  C   MET A   1      -5.268  17.333  20.975  0.00  0.00    +0.224 C 
ATOM      5  O   MET A   1      -5.042  18.543  20.855  0.00  0.00    -0.287 OA
ENDBRANCH   1   4
BRANCH   1   6
ATOM      6  CB  MET A   1      -7.298  16.398  19.840  0.00  0.00    +0.037 C 
BRANCH   6   7
ATOM      7  CG  MET A   1      -8.024  17.726  19.848  0.00  0.00    +0.059 C 
BRANCH   7   8
ATOM      8  SD  MET A   1      -7.731  18.640  18.327  0.00  0.00    -0.139 S 
ATOM      9  CE  MET A   1      -8.712  20.109  18.630  0.00  0.00    +0.069 C 
ENDBRANCH   7   8
ENDBRANCH   6   7
ENDBRANCH   1   6
TORSDOF 5
REMARK  Name = ../refined-set-2016/4ymq/4ymq_pocket.pdb
REMARK  307 active torsions:
REMARK  status: ('A' for Active; 'I' for Inactive)
REMARK    1  A    between atoms: _1  and  _3
REMARK    2  A    between atoms: _3  and  _4
REMARK    3  A    between atoms: _3  and  _6
REMARK    4  A    between atoms: _6  and  _7
REMARK    5  A    between atoms: _12  and  _13
REMARK    6  A    between atoms: _15  and  _17
REMARK    7  A    between atoms: _17  and  _18
REMARK    8  A    between atoms: _17  and  _20
REMARK    9  A    between atoms: _20  and  _21
REMARK   10  A    between atoms: _24  and  _26
REMARK   11  A    between atoms: _26  and  _27
REMARK   12  A    between atoms: _26  and  _29
REMARK   13  A    between atoms: _31  and  _33
REMARK   14  A    between atoms: _33  and  _34
REMARK   15  A    between atoms: _33  and  _36
REMARK   16  A    between atoms: _36  and  _37
REMARK   17  A    between atoms: _37  and  _38
REMARK   18  A    between atoms: _43  and  _45
REMARK   19  A    between atoms: _45  and  _46
REMARK   20  A    between atoms: _45  and  _48
REMARK   21  A    between atoms: _48  and  _49
REMARK   22  A    between atoms: _52  and  _54
REMARK   23  A    between atoms: _54  and  _55
REMARK   24  A    between atoms: _54  and  _57
REMARK   25  A    between atoms: _57  and  _58
REMARK   26  A    between atoms: _58  and  _59
REMARK   27  A    between atoms: _59  and  _60
REMARK   28  A    between atoms: _69  and  _71
REMARK   29  A    between atoms: _71  and  _72
REMARK   30  A    between atoms: _71  and  _74
REMARK   31  A    between atoms: _74  and  _75
REMARK   32  A    between atoms: _78  and  _80
REMARK   33  A    between atoms: _80  and  _81
REMARK   34  A    between atoms: _80  and  _83
REMARK   35  A    between atoms: _83  and  _84
REMARK   36  A    between atoms: _87  and  _89
REMARK   37  A    between atoms: _89  and  _90
REMARK   38  A    between atoms: _89  and  _92
REMARK   39  A    between atoms: _92  and  _93
REMARK   40  A    between atoms: _99  and  _101
REMARK   41  A    between atoms: _101  and  _102
REMARK   42  A    between atoms: _101  and  _104
REMARK   43  A    between atoms: _104  and  _105
REMARK   44  A    between atoms: _105  and  _106
REMARK   45  A    between atoms: _108  and  _110
REMARK   46  A    between atoms: _110  and  _111
REMARK   47  A    between atoms: _110  and  _113
REMARK   48  A    between atoms: _113  and  _114
REMARK   49  A    between atoms: _124  and  _126
REMARK   50  A    between atoms: _126  and  _127
REMARK   51  A    between atoms: _126  and  _129
REMARK   52  A    between atoms: _129  and  _130
REMARK   53  A    between atoms: _130  and  _131
REMARK   54  A    between atoms: _134  and  _136
REMARK   55  A    between atoms: _136  and  _137
REMARK   56  A    between atoms: _136  and  _139
REMARK   57  A    between atoms: _139  and  _140
REMARK   58  A    between atoms: _140  and  _141
REMARK   59  A    between atoms: _141  and  _142
REMARK   60  A    between atoms: _151  and  _153
REMARK   61  A    between atoms: _153  and  _154
REMARK   62  A    between atoms: _153  and  _156
REMARK   63  A    between atoms: _158  and  _160
REMARK   64  A    between atoms: _160  and  _161
REMARK   65  A    between atoms: _164  and  _166
REMARK   66  A    between atoms: _166  and  _167
REMARK   67  A    between atoms: _166  and  _169
REMARK   68  A    between atoms: _169  and  _170
REMARK   69  A    between atoms: _175  and  _177
REMARK   70  A    between atoms: _177  and  _178
REMARK   71  A    between atoms: _177  and  _180
REMARK   72  A    between atoms: _180  and  _181
REMARK   73  A    between atoms: _186  and  _188
REMARK   74  A    between atoms: _188  and  _189
REMARK   75  A    between atoms: _188  and  _191
REMARK   76  A    between atoms: _191  and  _192
REMARK   77  A    between atoms: _195  and  _197
REMARK   78  A    between atoms: _197  and  _198
REMARK   79  A    between atoms: _197  and  _200
REMARK   80  A    between atoms: _200  and  _201
REMARK   81  A    between atoms: _204  and  _206
REMARK   82  A    between atoms: _206  and  _207
REMARK   83  A    between atoms: _206  and  _209
REMARK   84  A    between atoms: _209  and  _210
REMARK   85  A    between atoms: _210  and  _211
REMARK   86  A    between atoms: _214  and  _216
REMARK   87  A    between atoms: _216  and  _217
REMARK   88  A    between atoms: _220  and  _222
REMARK   89  A    between atoms: _222  and  _223
REMARK   90  A    between atoms: _222  and  _225
REMARK   91  A    between atoms: _225  and  _226
REMARK   92  A    between atoms: _229  and  _231
REMARK   93  A    between atoms: _231  and  _232
REMARK   94  A    between atoms: _231  and  _234
REMARK   95  A    between atoms: _234  and  _235
REMARK   96  A    between atoms: _240  and  _241
REMARK   97  A    between atoms: _243  and  _245
REMARK   98  A    between atoms: _245  and  _246
REMARK   99  A    between atoms: _245  and  _248
REMARK  100  A    between atoms: _251  and  _253
REMARK  101  A    between atoms: _253  and  _254
REMARK  102  A    between atoms: _253  and  _256
REMARK  103  A    between atoms: _256  and  _257
REMARK  104  A    between atoms: _257  and  _258
REMARK  105  A    between atoms: _260  and  _262
REMARK  106  A    between atoms: _262  and  _263
REMARK  107  A    between atoms: _262  and  _265
REMARK  108  A    between atoms: _268  and  _270
REMARK  109  A    between atoms: _270  and  _271
REMARK  110  A    between atoms: _270  and  _273
REMARK  111  A    between atoms: _276  and  _278
REMARK  112  A    between atoms: _278  and  _279
REMARK  113  A    between atoms: _278  and  _281
REMARK  114  A    between atoms: _281  and  _282
REMARK  115  A    between atoms: _285  and  _287
REMARK  116  A    between atoms: _287  and  _288
REMARK  117  A    between atoms: _287  and  _290
REMARK  118  A    between atoms: _293  and  _295
REMARK  119  A    between atoms: _295  and  _296
REMARK  120  A    between atoms: _295  and  _298
REMARK  121  A    between atoms: _298  and  _299
REMARK  122  A    between atoms: _299  and  _300
REMARK  123  A    between atoms: _300  and  _301
REMARK  124  A    between atoms: _310  and  _312
REMARK  125  A    between atoms: _312  and  _313
REMARK  126  A    between atoms: _312  and  _315
REMARK  127  A    between atoms: _315  and  _316
REMARK  128  A    between atoms: _316  and  _317
REMARK  129  A    between atoms: _319  and  _321
REMARK  130  A    between atoms: _321  and  _322
REMARK  131  A    between atoms: _321  and  _324
REMARK  132  A    between atoms: _326  and  _328
REMARK  133  A    between atoms: _328  and  _329
REMARK  134  A    between atoms: _328  and  _331
REMARK  135  A    between atoms: _331  and  _332
REMARK  136  A    between atoms: _332  and  _333
REMARK  137  A    between atoms: _333  and  _334
REMARK  138  A    between atoms: _343  and  _345
REMARK  139  A    between atoms: _345  and  _346
REMARK  140  A    between atoms: _349  and  _351
REMARK  141  A    between atoms: _351  and  _352
REMARK  142  A    between atoms: _351  and  _354
REMARK  143  A    between atoms: _354  and  _355
REMARK  144  A    between atoms: _360  and  _361
REMARK  145  A    between atoms: _363  and  _365
REMARK  146  A    between atoms: _365  and  _366
REMARK  147  A    between atoms: _365  and  _368
REMARK  148  A    between atoms: _368  and  _369
REMARK  149  A    between atoms: _374  and  _376
REMARK  150  A    between atoms: _376  and  _377
REMARK  151  A    between atoms: _376  and  _379
REMARK  152  A    between atoms: _379  and  _380
REMARK  153  A    between atoms: _380  and  _381
REMARK  154  A    between atoms: _381  and  _382
REMARK  155  A    between atoms: _391  and  _393
REMARK  156  A    between atoms: _393  and  _394
REMARK  157  A    between atoms: _393  and  _396
REMARK  158  A    between atoms: _396  and  _397
REMARK  159  A    between atoms: _400  and  _402
REMARK  160  A    between atoms: _402  and  _403
REMARK  161  A    between atoms: _402  and  _405
REMARK  162  A    between atoms: _408  and  _410
REMARK  163  A    between atoms: _410  and  _411
REMARK  164  A    between atoms: _410  and  _413
REMARK  165  A    between atoms: _413  and  _414
REMARK  166  A    between atoms: _420  and  _422
REMARK  167  A    between atoms: _422  and  _423
REMARK  168  A    between atoms: _422  and  _425
REMARK  169  A    between atoms: _425  and  _426
REMARK  170  A    between atoms: _432  and  _434
REMARK  171  A    between atoms: _434  and  _435
REMARK  172  A    between atoms: _434  and  _437
REMARK  173  A    between atoms: _437  and  _438
REMARK  174  A    between atoms: _438  and  _439
REMARK  175  A    between atoms: _442  and  _444
REMARK  176  A    between atoms: _444  and  _445
REMARK  177  A    between atoms: _447  and  _449
REMARK  178  A    between atoms: _449  and  _450
REMARK  179  A    between atoms: _449  and  _452
REMARK  180  A    between atoms: _452  and  _453
REMARK  181  A    between atoms: _453  and  _454
REMARK  182  A    between atoms: _454  and  _455
REMARK  183  A    between atoms: _455  and  _456
REMARK  184  A    between atoms: _460  and  _462
REMARK  185  A    between atoms: _462  and  _463
REMARK  186  A    between atoms: _462  and  _465
REMARK  187  A    between atoms: _465  and  _466
REMARK  188  A    between atoms: _471  and  _472
REMARK  189  A    between atoms: _474  and  _476
REMARK  190  A    between atoms: _476  and  _477
REMARK  191  A    between atoms: _479  and  _481
REMARK  192  A    between atoms: _481  and  _482
REMARK  193  A    between atoms: _484  and  _486
REMARK  194  A    between atoms: _486  and  _487
REMARK  195  A    between atoms: _486  and  _489
REMARK  196  A    between atoms: _489  and  _490
REMARK  197  A    between atoms: _490  and  _491
REMARK  198  A    between atoms: _493  and  _495
REMARK  199  A    between atoms: _495  and  _496
REMARK  200  A    between atoms: _495  and  _498
REMARK  201  A    between atoms: _498  and  _499
REMARK  202  A    between atoms: _502  and  _504
REMARK  203  A    between atoms: _504  and  _505
REMARK  204  A    between atoms: _504  and  _507
REMARK  205  A    between atoms: _507  and  _508
REMARK  206  A    between atoms: _514  and  _516
REMARK  207  A    between atoms: _516  and  _517
REMARK  208  A    between atoms: _516  and  _519
REMARK  209  A    between atoms: _519  and  _520
REMARK  210  A    between atoms: _523  and  _525
REMARK  211  A    between atoms: _525  and  _526
REMARK  212  A    between atoms: _525  and  _528
REMARK  213  A    between atoms: _530  and  _532
REMARK  214  A    between atoms: _532  and  _533
REMARK  215  A    between atoms: _532  and  _535
REMARK  216  A    between atoms: _535  and  _536
REMARK  217  A    between atoms: _539  and  _541
REMARK  218  A    between atoms: _541  and  _542
REMARK  219  A    between atoms: _541  and  _544
REMARK  220  A    between atoms: _544  and  _545
REMARK  221  A    between atoms: _548  and  _550
REMARK  222  A    between atoms: _550  and  _551
REMARK  223  A    between atoms: _550  and  _553
REMARK  224  A    between atoms: _553  and  _554
REMARK  225  A    between atoms: _556  and  _558
REMARK  226  A    between atoms: _558  and  _559
REMARK  227  A    between atoms: _558  and  _561
REMARK  228  A    between atoms: _561  and  _562
REMARK  229  A    between atoms: _564  and  _566
REMARK  230  A    between atoms: _566  and  _567
REMARK  231  A    between atoms: _566  and  _569
REMARK  232  A    between atoms: _569  and  _570
REMARK  233  A    between atoms: _573  and  _575
REMARK  234  A    between atoms: _575  and  _576
REMARK  235  A    between atoms: _575  and  _578
REMARK  236  A    between atoms: _578  and  _579
REMARK  237  A    between atoms: _585  and  _587
REMARK  238  A    between atoms: _587  and  _588
REMARK  239  A    between atoms: _587  and  _590
REMARK  240  A    between atoms: _590  and  _591
REMARK  241  A    between atoms: _594  and  _596
REMARK  242  A    between atoms: _596  and  _597
REMARK  243  A    between atoms: _596  and  _599
REMARK  244  A    between atoms: _599  and  _600
REMARK  245  A    between atoms: _606  and  _608
REMARK  246  A    between atoms: _608  and  _609
REMARK  247  A    between atoms: _608  and  _611
REMARK  248  A    between atoms: _611  and  _612
REMARK  249  A    between atoms: _614  and  _616
REMARK  250  A    between atoms: _616  and  _617
REMARK  251  A    between atoms: _616  and  _619
REMARK  252  A    between atoms: _619  and  _620
REMARK  253  A    between atoms: _625  and  _627
REMARK  254  A    between atoms: _627  and  _628
REMARK  255  A    between atoms: _627  and  _630
REMARK  256  A    between atoms: _630  and  _631
REMARK  257  A    between atoms: _633  and  _635
REMARK  258  A    between atoms: _635  and  _636
REMARK  259  A    between atoms: _635  and  _638
REMARK  260  A    between atoms: _638  and  _639
REMARK  261  A    between atoms: _639  and  _640
REMARK  262  A    between atoms: _643  and  _645
REMARK  263  A    between atoms: _645  and  _646
REMARK  264  A    between atoms: _645  and  _648
REMARK  265  A    between atoms: _648  and  _649
REMARK  266  A    between atoms: _652  and  _654
REMARK  267  A    between atoms: _654  and  _655
REMARK  268  A    between atoms: _654  and  _657
REMARK  269  A    between atoms: _657  and  _658
REMARK  270  A    between atoms: _661  and  _663
REMARK  271  A    between atoms: _663  and  _664
REMARK  272  A    between atoms: _663  and  _666
REMARK  273  A    between atoms: _668  and  _670
REMARK  274  A    between atoms: _670  and  _671
REMARK  275  A    between atoms: _670  and  _673
REMARK  276  A    between atoms: _673  and  _674
REMARK  277  A    between atoms: _674  and  _675
REMARK  278  A    between atoms: _680  and  _682
REMARK  279  A    between atoms: _682  and  _683
REMARK  280  A    between atoms: _682  and  _685
REMARK  281  A    between atoms: _685  and  _686
REMARK  282  A    between atoms: _691  and  _693
REMARK  283  A    between atoms: _693  and  _694
REMARK  284  A    between atoms: _693  and  _696
REMARK  285  A    between atoms: _699  and  _701
REMARK  286  A    between atoms: _701  and  _702
REMARK  287  A    between atoms: _701  and  _704
REMARK  288  A    between atoms: _704  and  _705
REMARK  289  A    between atoms: _705  and  _706
REMARK  290  A    between atoms: _706  and  _707
REMARK  291  A    between atoms: _716  and  _718
REMARK  292  A    between atoms: _718  and  _719
REMARK  293  A    between atoms: _718  and  _721
REMARK  294  A    between atoms: _721  and  _722
REMARK  295  A    between atoms: _725  and  _727
REMARK  296  A    between atoms: _727  and  _728
REMARK  297  A    between atoms: _727  and  _730
REMARK  298  A    between atoms: _730  and  _731
REMARK  299  A    between atoms: _737  and  _739
REMARK  300  A    between atoms: _739  and  _740
REMARK  301  A    between atoms: _739  and  _742
REMARK  302  A    between atoms: _742  and  _743
REMARK  303  A    between atoms: _748  and  _749
REMARK  304  A    between atoms: _751  and  _753
REMARK  305  A    between atoms: _753  and  _754
REMARK  306  A    between atoms: _753  and  _756
REMARK  307  A    between atoms: _756  and  _757
REMARK                            x       y       z     vdW  Elec       q    Type
REMARK                         _______ _______ _______ _____ _____    ______ ____
ROOT
ATOM      1  CA  MET A   6      -0.881  25.701  19.272  0.00  0.00    +0.149 C 
ENDROOT
BRANCH   1   2
ATOM      2  C   MET A   6      -0.408  26.981  19.955  0.00  0.00    +0.241 C 
ATOM      3  N   CYS A   7       0.031  26.903  21.217  0.00  0.00    -0.296 N 
ATOM      4  H   CYS A   7       0.088  25.983  21.698  0.00  0.00    +0.150 HD
ATOM      5  O   MET A   6      -0.457  28.056  19.345  0.00  0.00    -0.273 OA
BRANCH   3   6
ATOM      6  CA  CYS A   7       0.429  28.125  21.911  0.00  0.00    +0.160 C 
BRANCH   6   7
ATOM      7  C   CYS A   7       1.652  28.776  21.276  0.00  0.00    +0.242 C 
ATOM      8  O   CYS A   7       1.859  29.983  21.447  0.00  0.00    -0.273 OA
ATOM      9  N   ARG A   8       2.458  28.008  20.539  0.00  0.00    -0.297 N 
ATOM     10  H   ARG A   8       2.263  26.990  20.455  0.00  0.00    +0.150 HD
BRANCH   9  11
ATOM     11  CA  ARG A   8       3.610  28.582  19.849  0.00  0.00    +0.149 C 
BRANCH  11  12
ATOM     12  C   ARG A   8       3.196  29.578  18.770  0.00  0.00    +0.241 C 
ATOM     13  O   ARG A   8       3.927  30.541  18.510  0.00  0.00    -0.273 OA
ATOM     14  N   ALA A   9       2.048  29.368  18.131  0.00  0.00    -0.297 N 
ATOM     15  H   ALA A   9       1.480  28.533  18.379  0.00  0.00    +0.150 HD
BRANCH  14  16
ATOM     16  CA  ALA A   9       1.560  30.269  17.095  0.00  0.00    +0.149 C 
ATOM     17  CB  ALA A   9       0.878  29.483  15.975  0.00  0.00    +0.031 C 
BRANCH  16  18
ATOM     18  C   ALA A   9       0.603  31.321  17.630  0.00  0.00    +0.241 C 
ATOM     19  N   TYR A  10       0.510  31.470  18.947  0.00  0.00    -0.297 N 
ATOM     20  H   TYR A  10       1.088  30.860  19.560  0.00  0.00    +0.150 HD
ATOM     21  O   ALA A   9      -0.060  31.996  16.836  0.00  0.00    -0.273 OA
BRANCH  19  22
ATOM     22  CA  TYR A  10      -0.367  32.451  19.565  0.00  0.00    +0.153 C 
BRANCH  22  23
ATOM     23  C   TYR A  10       0.465  33.635  20.043  0.00  0.00    +0.241 C 
ATOM     24  O   TYR A  10       1.466  33.452  20.744  0.00  0.00    -0.273 OA
ATOM     25  N   ASN A  11       0.057  34.844  19.652  0.00  0.00    -0.298 N 
ATOM     26  H   ASN A  11      -0.766  34.909  19.020  0.00  0.00    +0.150 HD
BRANCH  25  27
ATOM     27  CA  ASN A  11       0.714  36.080  20.071  0.00  0.00    +0.146 C 
BRANCH  27  28
ATOM     28  C   ASN A  11      -0.140  36.717  21.163  0.00  0.00    +0.227 C 
ATOM     29  O   ASN A  11      -1.187  37.304  20.878  0.00  0.00    -0.286 OA
ENDBRANCH  27  28
BRANCH  27  30
ATOM     30  CB  ASN A  11       0.887  37.028  18.882  0.00  0.00    +0.112 C 
BRANCH  30  31
ATOM     31  CG  ASN A  11       1.706  38.271  19.223  0.00  0.00    +0.222 C 
ATOM     32  OD1 ASN A  11       1.902  38.605  20.394  0.00  0.00    -0.275 OA
ATOM     33  ND2 ASN A  11       2.183  38.967  18.190  0.00  0.00    -0.329 N 
ATOM     34 HD21 ASN A  11       2.744  39.827  18.357  0.00  0.00    +0.145 HD
ATOM     35 HD22 ASN A  11       1.994  38.650  17.218  0.00  0.00    +0.145 HD
ENDBRANCH  30  31
ENDBRANCH  27  30
ENDBRANCH  25  27
ENDBRANCH  22  23
BRANCH  22  36
ATOM     36  CB  TYR A  10      -1.123  31.818  20.736  0.00  0.00    +0.055 C 
BRANCH  36  37
ATOM     37  CG  TYR A  10      -2.023  32.772  21.479  0.00  0.00    -0.020 A 
ATOM     38  CD2 TYR A  10      -1.620  33.348  22.677  0.00  0.00    -0.001 A 
ATOM     39  CE2 TYR A  10      -2.441  34.222  23.361  0.00  0.00    +0.036 A 
ATOM     40  CZ  TYR A  10      -3.685  34.528  22.849  0.00  0.00    +0.134 A 
ATOM     41  CE1 TYR A  10      -4.108  33.966  21.663  0.00  0.00    +0.036 A 
ATOM     42  CD1 TYR A  10      -3.279  33.095  20.987  0.00  0.00    -0.001 A 
BRANCH  40  43
ATOM     43  OH  TYR A  10      -4.512  35.402  23.521  0.00  0.00    -0.506 OA
ATOM     44  HH  TYR A  10      -4.706  35.043  24.423  0.00  0.00    +0.292 HD
ENDBRANCH  40  43
ENDBRANCH  36  37
ENDBRANCH  22  36
ENDBRANCH  19  22
ENDBRANCH  16  18
ENDBRANCH  14  16
ENDBRANCH  11  12
BRANCH  11  45
ATOM     45  CB  ARG A   8       4.463  27.470  19.247  0.00  0.00    +0.033 C 
BRANCH  45  46
ATOM     46  CG  ARG A   8       5.075  26.545  20.281  0.00  0.00    +0.045 C 
BRANCH  46  47
ATOM     47  CD  ARG A   8       5.557  25.254  19.652  0.00  0.00    +0.174 C 
BRANCH  47  48
ATOM     48  NE  ARG A   8       6.830  25.402  18.943  0.00  0.00    -0.265 N 
ATOM     49  HE  ARG A   8       7.677  25.621  19.505  0.00  0.00    +0.259 HD
ATOM     50  CZ  ARG A   8       6.973  25.274  17.627  0.00  0.00    +0.342 C 
ATOM     51  NH2 ARG A   8       8.165  25.417  17.073  0.00  0.00    -0.292 N 
ATOM     52 HH21 ARG A   8       8.992  25.630  17.666  0.00  0.00    +0.255 HD
ATOM     53 HH22 ARG A   8       8.275  25.317  16.044  0.00  0.00    +0.255 HD
ATOM     54  NH1 ARG A   8       5.923  25.003  16.865  0.00  0.00    -0.292 N 
ATOM     55 HH11 ARG A   8       4.983  24.890  17.296  0.00  0.00    +0.255 HD
ATOM     56 HH12 ARG A   8       6.039  24.904  15.836  0.00  0.00    +0.255 HD
ENDBRANCH  47  48
ENDBRANCH  46  47
ENDBRANCH  45  46
ENDBRANCH  11  45
ENDBRANCH   9  11
ENDBRANCH   6   7
BRANCH   6  57
ATOM     57  CB  CYS A   7       0.633  27.884  23.413  0.00  0.00    +0.098 C 
ATOM     58  SG  CYS A   7       2.166  27.043  23.853  0.00  0.00    -0.080 S 
ENDBRANCH   6  57
ENDBRANCH   3   6
ENDBRANCH   1   2
BRANCH   1  60
ATOM     59  C   ARG A   5       0.993  24.280  19.924  0.00  0.00    +0.241 C 
ATOM     60  N   MET A   6      -0.328  24.496  19.895  0.00  0.00    -0.297 N 
ATOM     61  H   MET A   6      -0.971  23.798  20.321  0.00  0.00    +0.150 HD
ATOM     62  O   ARG A   5       1.806  25.111  19.504  0.00  0.00    -0.273 OA
BRANCH  59  63
ATOM     63  CA  ARG A   5       1.489  22.962  20.518  0.00  0.00    +0.149 C 
BRANCH  63  66
ATOM     64  C   VAL A   4       0.296  23.183  22.630  0.00  0.00    +0.241 C 
ATOM     65  O   VAL A   4       0.790  24.301  22.821  0.00  0.00    -0.273 OA
ATOM     66  N   ARG A   5       0.585  22.454  21.546  0.00  0.00    -0.297 N 
ATOM     67  H   ARG A   5       0.160  21.512  21.434  0.00  0.00    +0.150 HD
BRANCH  64  68
ATOM     68  CA  VAL A   4      -0.665  22.568  23.641  0.00  0.00    +0.149 C 
BRANCH  68  70
ATOM     69  C   LEU A   3      -2.756  22.789  22.419  0.00  0.00    +0.241 C 
ATOM     70  N   VAL A   4      -1.827  21.995  22.960  0.00  0.00    -0.297 N 
ATOM     71  H   VAL A   4      -1.931  20.962  22.897  0.00  0.00    +0.150 HD
ATOM     72  O   LEU A   3      -2.711  24.020  22.524  0.00  0.00    -0.273 OA
BRANCH  69  73
ATOM     73  CA  LEU A   3      -3.899  22.124  21.664  0.00  0.00    +0.149 C 
BRANCH  73  75
ATOM     74  C   VAL A   2      -2.509  21.131  19.925  0.00  0.00    +0.241 C 
ATOM     75  N   LEU A   3      -3.432  20.986  20.879  0.00  0.00    -0.297 N 
ATOM     76  H   LEU A   3      -3.826  20.042  21.066  0.00  0.00    +0.150 HD
ATOM     77  O   VAL A   2      -1.987  22.225  19.675  0.00  0.00    -0.273 OA
BRANCH  74  78
ATOM     78  CA  VAL A   2      -2.108  19.874  19.161  0.00  0.00    +0.148 C 
BRANCH  78  81
ATOM     79  C   VAL A   1      -1.078  18.809  21.092  0.00  0.00    +0.238 C 
ATOM     80  O   VAL A   1      -0.376  19.807  21.288  0.00  0.00    -0.274 OA
ATOM     81  N   VAL A   2      -1.951  18.745  20.081  0.00  0.00    -0.297 N 
ATOM     82  H   VAL A   2      -2.523  17.887  19.947  0.00  0.00    +0.150 HD
BRANCH  79  83
ATOM     83  CA  VAL A   1      -0.981  17.591  22.004  0.00  0.00    +0.145 C 
BRANCH  83  84
ATOM     84  CB  VAL A   1      -0.159  16.460  21.359  0.00  0.00    +0.025 C 
ATOM     85  CG2 VAL A   1       0.117  15.353  22.364  0.00  0.00    +0.002 C 
ATOM     86  CG1 VAL A   1       1.149  17.018  20.804  0.00  0.00    +0.002 C 
ENDBRANCH  83  84
BRANCH  83  87
ATOM     87  N   VAL A   1      -2.317  17.121  22.369  0.00  0.00    -0.238 NA
ATOM     88  H   VAL A   1      -2.617  16.162  22.102  0.00  0.00    +0.142 HD
ENDBRANCH  83  87
ENDBRANCH  79  83
ENDBRANCH  78  81
BRANCH  78  89
ATOM     89  CB  VAL A   2      -3.122  19.526  18.052  0.00  0.00    +0.027 C 
ATOM     90  CG2 VAL A   2      -3.457  20.761  17.228  0.00  0.00    +0.002 C 
ATOM     91  CG1 VAL A   2      -2.582  18.411  17.161  0.00  0.00    +0.002 C 
ENDBRANCH  78  89
ENDBRANCH  74  78
ENDBRANCH  73  75
BRANCH  73  92
ATOM     92  CB  LEU A   3      -4.991  21.672  22.635  0.00  0.00    +0.029 C 
BRANCH  92  93
ATOM     93  CG  LEU A   3      -6.401  21.520  22.065  0.00  0.00    +0.002 C 
ATOM     94  CD2 LEU A   3      -7.292  20.725  23.024  0.00  0.00    +0.000 C 
ATOM     95  CD1 LEU A   3      -7.004  22.889  21.800  0.00  0.00    +0.000 C 
ENDBRANCH  92  93
ENDBRANCH  73  92
ENDBRANCH  69  73
ENDBRANCH  68  70
BRANCH  68  96
ATOM     96  CB  VAL A   4       0.033  21.506  24.512  0.00  0.00    +0.027 C 
ATOM     97  CG2 VAL A   4      -0.898  21.024  25.621  0.00  0.00    +0.002 C 
ATOM     98  CG1 VAL A   4       1.333  22.061  25.084  0.00  0.00    +0.002 C 
ENDBRANCH  68  96
ENDBRANCH  64  68
ENDBRANCH  63  66
BRANCH  63  99
ATOM     99  CB  ARG A   5       1.660  21.917  19.410  0.00  0.00    +0.033 C 
BRANCH  99 100
ATOM    100  CG  ARG A   5       2.555  20.720  19.723  0.00  0.00    +0.045 C 
BRANCH 100 101
ATOM    101  CD  ARG A   5       2.629  19.770  18.516  0.00  0.00    +0.174 C 
BRANCH 101 102
ATOM    102  NE  ARG A   5       3.745  18.832  18.625  0.00  0.00    -0.265 N 
ATOM    103  HE  ARG A   5       4.045  18.548  19.580  0.00  0.00    +0.259 HD
ATOM    104  CZ  ARG A   5       4.405  18.315  17.593  0.00  0.00    +0.342 C 
ATOM    105  NH2 ARG A   5       5.413  17.482  17.811  0.00  0.00    -0.292 N 
ATOM    106 HH21 ARG A   5       5.683  17.236  18.785  0.00  0.00    +0.255 HD
ATOM    107 HH22 ARG A   5       5.933  17.074  17.008  0.00  0.00    +0.255 HD
ATOM    108  NH1 ARG A   5       4.070  18.634  16.347  0.00  0.00    -0.292 N 
ATOM    109 HH11 ARG A   5       3.285  19.294  16.172  0.00  0.00    +0.255 HD
ATOM    110 HH12 ARG A   5       4.593  18.224  15.547  0.00  0.00    +0.255 HD
ENDBRANCH 101 102
ENDBRANCH 100 101
ENDBRANCH  99 100
ENDBRANCH  63  99
ENDBRANCH  59  63
ENDBRANCH   1  60
BRANCH   1 111
ATOM    111  CB  MET A   6      -2.412  25.662  19.292  0.00  0.00    +0.041 C 
BRANCH 111 112
ATOM    112  CG  MET A   6      -3.057  24.844  18.186  0.00  0.00    +0.060 C 
BRANCH 112 113
ATOM    113  SD  MET A   6      -4.751  24.366  18.596  0.00  0.00    -0.139 S 
ATOM    114  CE  MET A   6      -5.691  25.759  18.021  0.00  0.00    +0.069 C 
ENDBRANCH 112 113
ENDBRANCH 111 112
ENDBRANCH   1 111
TORSDOF 44
REMARK  Name = ../refined-set-2016/4ymq/4ymq_pocket.pdb
REMARK  307 active torsions:
REMARK  status: ('A' for Active; 'I' for Inactive)
REMARK    1  A    between atoms: _1  and  _3
REMARK    2  A    between atoms: _3  and  _4
REMARK    3  A    between atoms: _3  and  _6
REMARK    4  A    between atoms: _6  and  _7
REMARK    5  A    between atoms: _12  and  _13
REMARK    6  A    between atoms: _15  and  _17
REMARK    7  A    between atoms: _17  and  _18
REMARK    8  A    between atoms: _17  and  _20
REMARK    9  A    between atoms: _20  and  _21
REMARK   10  A    between atoms: _24  and  _26
REMARK   11  A    between atoms: _26  and  _27
REMARK   12  A    between atoms: _26  and  _29
REMARK   13  A    between atoms: _31  and  _33
REMARK   14  A    between atoms: _33  and  _34
REMARK   15  A    between atoms: _33  and  _36
REMARK   16  A    between atoms: _36  and  _37
REMARK   17  A    between atoms: _37  and  _38
REMARK   18  A    between atoms: _43  and  _45
REMARK   19  A    between atoms: _45  and  _46
REMARK   20  A    between atoms: _45  and  _48
REMARK   21  A    between atoms: _48  and  _49
REMARK   22  A    between atoms: _52  and  _54
REMARK   23  A    between atoms: _54  and  _55
REMARK   24  A    between atoms: _54  and  _57
REMARK   25  A    between atoms: _57  and  _58
REMARK   26  A    between atoms: _58  and  _59
REMARK   27  A    between atoms: _59  and  _60
REMARK   28  A    between atoms: _69  and  _71
REMARK   29  A    between atoms: _71  and  _72
REMARK   30  A    between atoms: _71  and  _74
REMARK   31  A    between atoms: _74  and  _75
REMARK   32  A    between atoms: _78  and  _80
REMARK   33  A    between atoms: _80  and  _81
REMARK   34  A    between atoms: _80  and  _83
REMARK   35  A    between atoms: _83  and  _84
REMARK   36  A    between atoms: _87  and  _89
REMARK   37  A    between atoms: _89  and  _90
REMARK   38  A    between atoms: _89  and  _92
REMARK   39  A    between atoms: _92  and  _93
REMARK   40  A    between atoms: _99  and  _101
REMARK   41  A    between atoms: _101  and  _102
REMARK   42  A    between atoms: _101  and  _104
REMARK   43  A    between atoms: _104  and  _105
REMARK   44  A    between atoms: _105  and  _106
REMARK   45  A    between atoms: _108  and  _110
REMARK   46  A    between atoms: _110  and  _111
REMARK   47  A    between atoms: _110  and  _113
REMARK   48  A    between atoms: _113  and  _114
REMARK   49  A    between atoms: _124  and  _126
REMARK   50  A    between atoms: _126  and  _127
REMARK   51  A    between atoms: _126  and  _129
REMARK   52  A    between atoms: _129  and  _130
REMARK   53  A    between atoms: _130  and  _131
REMARK   54  A    between atoms: _134  and  _136
REMARK   55  A    between atoms: _136  and  _137
REMARK   56  A    between atoms: _136  and  _139
REMARK   57  A    between atoms: _139  and  _140
REMARK   58  A    between atoms: _140  and  _141
REMARK   59  A    between atoms: _141  and  _142
REMARK   60  A    between atoms: _151  and  _153
REMARK   61  A    between atoms: _153  and  _154
REMARK   62  A    between atoms: _153  and  _156
REMARK   63  A    between atoms: _158  and  _160
REMARK   64  A    between atoms: _160  and  _161
REMARK   65  A    between atoms: _164  and  _166
REMARK   66  A    between atoms: _166  and  _167
REMARK   67  A    between atoms: _166  and  _169
REMARK   68  A    between atoms: _169  and  _170
REMARK   69  A    between atoms: _175  and  _177
REMARK   70  A    between atoms: _177  and  _178
REMARK   71  A    between atoms: _177  and  _180
REMARK   72  A    between atoms: _180  and  _181
REMARK   73  A    between atoms: _186  and  _188
REMARK   74  A    between atoms: _188  and  _189
REMARK   75  A    between atoms: _188  and  _191
REMARK   76  A    between atoms: _191  and  _192
REMARK   77  A    between atoms: _195  and  _197
REMARK   78  A    between atoms: _197  and  _198
REMARK   79  A    between atoms: _197  and  _200
REMARK   80  A    between atoms: _200  and  _201
REMARK   81  A    between atoms: _204  and  _206
REMARK   82  A    between atoms: _206  and  _207
REMARK   83  A    between atoms: _206  and  _209
REMARK   84  A    between atoms: _209  and  _210
REMARK   85  A    between atoms: _210  and  _211
REMARK   86  A    between atoms: _214  and  _216
REMARK   87  A    between atoms: _216  and  _217
REMARK   88  A    between atoms: _220  and  _222
REMARK   89  A    between atoms: _222  and  _223
REMARK   90  A    between atoms: _222  and  _225
REMARK   91  A    between atoms: _225  and  _226
REMARK   92  A    between atoms: _229  and  _231
REMARK   93  A    between atoms: _231  and  _232
REMARK   94  A    between atoms: _231  and  _234
REMARK   95  A    between atoms: _234  and  _235
REMARK   96  A    between atoms: _240  and  _241
REMARK   97  A    between atoms: _243  and  _245
REMARK   98  A    between atoms: _245  and  _246
REMARK   99  A    between atoms: _245  and  _248
REMARK  100  A    between atoms: _251  and  _253
REMARK  101  A    between atoms: _253  and  _254
REMARK  102  A    between atoms: _253  and  _256
REMARK  103  A    between atoms: _256  and  _257
REMARK  104  A    between atoms: _257  and  _258
REMARK  105  A    between atoms: _260  and  _262
REMARK  106  A    between atoms: _262  and  _263
REMARK  107  A    between atoms: _262  and  _265
REMARK  108  A    between atoms: _268  and  _270
REMARK  109  A    between atoms: _270  and  _271
REMARK  110  A    between atoms: _270  and  _273
REMARK  111  A    between atoms: _276  and  _278
REMARK  112  A    between atoms: _278  and  _279
REMARK  113  A    between atoms: _278  and  _281
REMARK  114  A    between atoms: _281  and  _282
REMARK  115  A    between atoms: _285  and  _287
REMARK  116  A    between atoms: _287  and  _288
REMARK  117  A    between atoms: _287  and  _290
REMARK  118  A    between atoms: _293  and  _295
REMARK  119  A    between atoms: _295  and  _296
REMARK  120  A    between atoms: _295  and  _298
REMARK  121  A    between atoms: _298  and  _299
REMARK  122  A    between atoms: _299  and  _300
REMARK  123  A    between atoms: _300  and  _301
REMARK  124  A    between atoms: _310  and  _312
REMARK  125  A    between atoms: _312  and  _313
REMARK  126  A    between atoms: _312  and  _315
REMARK  127  A    between atoms: _315  and  _316
REMARK  128  A    between atoms: _316  and  _317
REMARK  129  A    between atoms: _319  and  _321
REMARK  130  A    between atoms: _321  and  _322
REMARK  131  A    between atoms: _321  and  _324
REMARK  132  A    between atoms: _326  and  _328
REMARK  133  A    between atoms: _328  and  _329
REMARK  134  A    between atoms: _328  and  _331
REMARK  135  A    between atoms: _331  and  _332
REMARK  136  A    between atoms: _332  and  _333
REMARK  137  A    between atoms: _333  and  _334
REMARK  138  A    between atoms: _343  and  _345
REMARK  139  A    between atoms: _345  and  _346
REMARK  140  A    between atoms: _349  and  _351
REMARK  141  A    between atoms: _351  and  _352
REMARK  142  A    between atoms: _351  and  _354
REMARK  143  A    between atoms: _354  and  _355
REMARK  144  A    between atoms: _360  and  _361
REMARK  145  A    between atoms: _363  and  _365
REMARK  146  A    between atoms: _365  and  _366
REMARK  147  A    between atoms: _365  and  _368
REMARK  148  A    between atoms: _368  and  _369
REMARK  149  A    between atoms: _374  and  _376
REMARK  150  A    between atoms: _376  and  _377
REMARK  151  A    between atoms: _376  and  _379
REMARK  152  A    between atoms: _379  and  _380
REMARK  153  A    between atoms: _380  and  _381
REMARK  154  A    between atoms: _381  and  _382
REMARK  155  A    between atoms: _391  and  _393
REMARK  156  A    between atoms: _393  and  _394
REMARK  157  A    between atoms: _393  and  _396
REMARK  158  A    between atoms: _396  and  _397
REMARK  159  A    between atoms: _400  and  _402
REMARK  160  A    between atoms: _402  and  _403
REMARK  161  A    between atoms: _402  and  _405
REMARK  162  A    between atoms: _408  and  _410
REMARK  163  A    between atoms: _410  and  _411
REMARK  164  A    between atoms: _410  and  _413
REMARK  165  A    between atoms: _413  and  _414
REMARK  166  A    between atoms: _420  and  _422
REMARK  167  A    between atoms: _422  and  _423
REMARK  168  A    between atoms: _422  and  _425
REMARK  169  A    between atoms: _425  and  _426
REMARK  170  A    between atoms: _432  and  _434
REMARK  171  A    between atoms: _434  and  _435
REMARK  172  A    between atoms: _434  and  _437
REMARK  173  A    between atoms: _437  and  _438
REMARK  174  A    between atoms: _438  and  _439
REMARK  175  A    between atoms: _442  and  _444
REMARK  176  A    between atoms: _444  and  _445
REMARK  177  A    between atoms: _447  and  _449
REMARK  178  A    between atoms: _449  and  _450
REMARK  179  A    between atoms: _449  and  _452
REMARK  180  A    between atoms: _452  and  _453
REMARK  181  A    between atoms: _453  and  _454
REMARK  182  A    between atoms: _454  and  _455
REMARK  183  A    between atoms: _455  and  _456
REMARK  184  A    between atoms: _460  and  _462
REMARK  185  A    between atoms: _462  and  _463
REMARK  186  A    between atoms: _462  and  _465
REMARK  187  A    between atoms: _465  and  _466
REMARK  188  A    between atoms: _471  and  _472
REMARK  189  A    between atoms: _474  and  _476
REMARK  190  A    between atoms: _476  and  _477
REMARK  191  A    between atoms: _479  and  _481
REMARK  192  A    between atoms: _481  and  _482
REMARK  193  A    between atoms: _484  and  _486
REMARK  194  A    between atoms: _486  and  _487
REMARK  195  A    between atoms: _486  and  _489
REMARK  196  A    between atoms: _489  and  _490
REMARK  197  A    between atoms: _490  and  _491
REMARK  198  A    between atoms: _493  and  _495
REMARK  199  A    between atoms: _495  and  _496
REMARK  200  A    between atoms: _495  and  _498
REMARK  201  A    between atoms: _498  and  _499
REMARK  202  A    between atoms: _502  and  _504
REMARK  203  A    between atoms: _504  and  _505
REMARK  204  A    between atoms: _504  and  _507
REMARK  205  A    between atoms: _507  and  _508
REMARK  206  A    between atoms: _514  and  _516
REMARK  207  A    between atoms: _516  and  _517
REMARK  208  A    between atoms: _516  and  _519
REMARK  209  A    between atoms: _519  and  _520
REMARK  210  A    between atoms: _523  and  _525
REMARK  211  A    between atoms: _525  and  _526
REMARK  212  A    between atoms: _525  and  _528
REMARK  213  A    between atoms: _530  and  _532
REMARK  214  A    between atoms: _532  and  _533
REMARK  215  A    between atoms: _532  and  _535
REMARK  216  A    between atoms: _535  and  _536
REMARK  217  A    between atoms: _539  and  _541
REMARK  218  A    between atoms: _541  and  _542
REMARK  219  A    between atoms: _541  and  _544
REMARK  220  A    between atoms: _544  and  _545
REMARK  221  A    between atoms: _548  and  _550
REMARK  222  A    between atoms: _550  and  _551
REMARK  223  A    between atoms: _550  and  _553
REMARK  224  A    between atoms: _553  and  _554
REMARK  225  A    between atoms: _556  and  _558
REMARK  226  A    between atoms: _558  and  _559
REMARK  227  A    between atoms: _558  and  _561
REMARK  228  A    between atoms: _561  and  _562
REMARK  229  A    between atoms: _564  and  _566
REMARK  230  A    between atoms: _566  and  _567
REMARK  231  A    between atoms: _566  and  _569
REMARK  232  A    between atoms: _569  and  _570
REMARK  233  A    between atoms: _573  and  _575
REMARK  234  A    between atoms: _575  and  _576
REMARK  235  A    between atoms: _575  and  _578
REMARK  236  A    between atoms: _578  and  _579
REMARK  237  A    between atoms: _585  and  _587
REMARK  238  A    between atoms: _587  and  _588
REMARK  239  A    between atoms: _587  and  _590
REMARK  240  A    between atoms: _590  and  _591
REMARK  241  A    between atoms: _594  and  _596
REMARK  242  A    between atoms: _596  and  _597
REMARK  243  A    between atoms: _596  and  _599
REMARK  244  A    between atoms: _599  and  _600
REMARK  245  A    between atoms: _606  and  _608
REMARK  246  A    between atoms: _608  and  _609
REMARK  247  A    between atoms: _608  and  _611
REMARK  248  A    between atoms: _611  and  _612
REMARK  249  A    between atoms: _614  and  _616
REMARK  250  A    between atoms: _616  and  _617
REMARK  251  A    between atoms: _616  and  _619
REMARK  252  A    between atoms: _619  and  _620
REMARK  253  A    between atoms: _625  and  _627
REMARK  254  A    between atoms: _627  and  _628
REMARK  255  A    between atoms: _627  and  _630
REMARK  256  A    between atoms: _630  and  _631
REMARK  257  A    between atoms: _633  and  _635
REMARK  258  A    between atoms: _635  and  _636
REMARK  259  A    between atoms: _635  and  _638
REMARK  260  A    between atoms: _638  and  _639
REMARK  261  A    between atoms: _639  and  _640
REMARK  262  A    between atoms: _643  and  _645
REMARK  263  A    between atoms: _645  and  _646
REMARK  264  A    between atoms: _645  and  _648
REMARK  265  A    between atoms: _648  and  _649
REMARK  266  A    between atoms: _652  and  _654
REMARK  267  A    between atoms: _654  and  _655
REMARK  268  A    between atoms: _654  and  _657
REMARK  269  A    between atoms: _657  and  _658
REMARK  270  A    between atoms: _661  and  _663
REMARK  271  A    between atoms: _663  and  _664
REMARK  272  A    between atoms: _663  and  _666
REMARK  273  A    between atoms: _668  and  _670
REMARK  274  A    between atoms: _670  and  _671
REMARK  275  A    between atoms: _670  and  _673
REMARK  276  A    between atoms: _673  and  _674
REMARK  277  A    between atoms: _674  and  _675
REMARK  278  A    between atoms: _680  and  _682
REMARK  279  A    between atoms: _682  and  _683
REMARK  280  A    between atoms: _682  and  _685
REMARK  281  A    between atoms: _685  and  _686
REMARK  282  A    between atoms: _691  and  _693
REMARK  283  A    between atoms: _693  and  _694
REMARK  284  A    between atoms: _693  and  _696
REMARK  285  A    between atoms: _699  and  _701
REMARK  286  A    between atoms: _701  and  _702
REMARK  287  A    between atoms: _701  and  _704
REMARK  288  A    between atoms: _704  and  _705
REMARK  289  A    between atoms: _705  and  _706
REMARK  290  A    between atoms: _706  and  _707
REMARK  291  A    between atoms: _716  and  _718
REMARK  292  A    between atoms: _718  and  _719
REMARK  293  A    between atoms: _718  and  _721
REMARK  294  A    between atoms: _721  and  _722
REMARK  295  A    between atoms: _725  and  _727
REMARK  296  A    between atoms: _727  and  _728
REMARK  297  A    between atoms: _727  and  _730
REMARK  298  A    between atoms: _730  and  _731
REMARK  299  A    between atoms: _737  and  _739
REMARK  300  A    between atoms: _739  and  _740
REMARK  301  A    between atoms: _739  and  _742
REMARK  302  A    between atoms: _742  and  _743
REMARK  303  A    between atoms: _748  and  _749
REMARK  304  A    between atoms: _751  and  _753
REMARK  305  A    between atoms: _753  and  _754
REMARK  306  A    between atoms: _753  and  _756
REMARK  307  A    between atoms: _756  and  _757
REMARK                            x       y       z     vdW  Elec       q    Type
REMARK                         _______ _______ _______ _____ _____    ______ ____
ROOT
ATOM      1  C   PHE A   5      -3.401  31.360   8.920  0.00  0.00    +0.241 C 
ATOM      2  O   PHE A   5      -3.641  32.512   8.547  0.00  0.00    -0.273 OA
ATOM      3  N   GLU A   6      -3.032  30.382   8.094  0.00  0.00    -0.297 N 
ATOM      4  H   GLU A   6      -2.778  29.460   8.502  0.00  0.00    +0.150 HD
ENDROOT
BRANCH   1   5
ATOM      5  CA  PHE A   5      -3.495  30.998  10.393  0.00  0.00    +0.153 C 
BRANCH   5   8
ATOM      6  C   PHE A   4      -1.815  31.311  12.134  0.00  0.00    +0.241 C 
ATOM      7  O   PHE A   4      -1.866  30.124  12.475  0.00  0.00    -0.273 OA
ATOM      8  N   PHE A   5      -2.535  31.807  11.131  0.00  0.00    -0.297 N 
ATOM      9  H   PHE A   5      -2.408  32.805  10.866  0.00  0.00    +0.150 HD
BRANCH   6  10
ATOM     10  CA  PHE A   4      -0.910  32.289  12.867  0.00  0.00    +0.153 C 
BRANCH  10  12
ATOM     11  C   VAL A   3      -2.429  33.299  14.487  0.00  0.00    +0.241 C 
ATOM     12  N   PHE A   4      -1.425  32.467  14.219  0.00  0.00    -0.297 N 
ATOM     13  H   PHE A   4      -0.995  31.928  14.998  0.00  0.00    +0.150 HD
ATOM     14  O   VAL A   3      -2.981  33.990  13.624  0.00  0.00    -0.273 OA
BRANCH  11  15
ATOM     15  CA  VAL A   3      -2.866  33.357  15.944  0.00  0.00    +0.149 C 
BRANCH  15  18
ATOM     16  C   THR A   2      -3.029  35.420  17.248  0.00  0.00    +0.243 C 
ATOM     17  O   THR A   2      -2.132  35.086  18.026  0.00  0.00    -0.273 OA
ATOM     18  N   VAL A   3      -3.425  34.671  16.221  0.00  0.00    -0.297 N 
ATOM     19  H   VAL A   3      -4.165  35.041  15.591  0.00  0.00    +0.150 HD
BRANCH  16  20
ATOM     20  CA  THR A   2      -3.753  36.749  17.395  0.00  0.00    +0.176 C 
BRANCH  20  23
ATOM     21  C   ARG A   1      -4.668  37.509  19.524  0.00  0.00    +0.238 C 
ATOM     22  O   ARG A   1      -5.826  37.357  19.129  0.00  0.00    -0.274 OA
ATOM     23  N   THR A   2      -3.612  37.245  18.756  0.00  0.00    -0.295 N 
ATOM     24  H   THR A   2      -2.658  37.398  19.141  0.00  0.00    +0.150 HD
BRANCH  21  25
ATOM     25  CA  ARG A   1      -4.364  38.011  20.937  0.00  0.00    +0.145 C 
BRANCH  25  26
ATOM     26  N   ARG A   1      -3.360  39.077  20.934  0.00  0.00    -0.238 NA
ATOM     27  H   ARG A   1      -2.475  38.926  21.459  0.00  0.00    +0.142 HD
ENDBRANCH  25  26
BRANCH  25  28
ATOM     28  CB  ARG A   1      -5.639  38.424  21.679  0.00  0.00    +0.030 C 
BRANCH  28  29
ATOM     29  CG  ARG A   1      -5.457  38.716  23.156  0.00  0.00    +0.045 C 
BRANCH  29  30
ATOM     30  CD  ARG A   1      -6.796  39.043  23.803  0.00  0.00    +0.174 C 
BRANCH  30  31
ATOM     31  NE  ARG A   1      -6.678  39.316  25.235  0.00  0.00    -0.265 N 
ATOM     32  CZ  ARG A   1      -6.915  38.423  26.192  0.00  0.00    +0.342 C 
ATOM     33  NH2 ARG A   1      -6.780  38.766  27.469  0.00  0.00    -0.292 N 
ATOM     34 HH21 ARG A   1      -6.965  38.068  28.217  0.00  0.00    +0.255 HD
ATOM     35 HH22 ARG A   1      -6.489  39.732  27.720  0.00  0.00    +0.255 HD
ATOM     36  NH1 ARG A   1      -7.291  37.190  25.875  0.00  0.00    -0.292 N 
ATOM     37 HH11 ARG A   1      -7.476  36.494  26.625  0.00  0.00    +0.255 HD
ATOM     38 HH12 ARG A   1      -7.401  36.920  24.877  0.00  0.00    +0.255 HD
ATOM     39  HE  ARG A   1      -6.389  40.272  25.524  0.00  0.00    +0.259 HD
ENDBRANCH  30  31
ENDBRANCH  29  30
ENDBRANCH  28  29
ENDBRANCH  25  28
ENDBRANCH  21  25
ENDBRANCH  20  23
BRANCH  20  40
ATOM     40  CB  THR A   2      -3.206  37.745  16.358  0.00  0.00    +0.137 C 
ATOM     41  CG2 THR A   2      -3.880  39.101  16.513  0.00  0.00    +0.034 C 
BRANCH  40  42
ATOM     42  OG1 THR A   2      -1.789  37.887  16.524  0.00  0.00    -0.382 OA
ATOM     43  HG1 THR A   2      -1.597  38.223  17.435  0.00  0.00    +0.210 HD
ENDBRANCH  40  42
ENDBRANCH  20  40
ENDBRANCH  16  20
ENDBRANCH  15  18
BRANCH  15  44
ATOM     44  CB  VAL A   3      -3.870  32.229  16.270  0.00  0.00    +0.027 C 
ATOM     45  CG2 VAL A   3      -4.272  32.297  17.733  0.00  0.00    +0.002 C 
ATOM     46  CG1 VAL A   3      -5.099  32.332  15.382  0.00  0.00    +0.002 C 
ENDBRANCH  15  44
ENDBRANCH  11  15
ENDBRANCH  10  12
BRANCH  10  47
ATOM     47  CB  PHE A   4       0.525  31.771  12.908  0.00  0.00    +0.055 C 
BRANCH  47  48
ATOM     48  CG  PHE A   4       1.218  31.819  11.579  0.00  0.00    -0.020 A 
ATOM     49  CD2 PHE A   4       1.462  33.036  10.962  0.00  0.00    -0.004 A 
ATOM     50  CE2 PHE A   4       2.099  33.094   9.739  0.00  0.00    -0.000 A 
ATOM     51  CZ  PHE A   4       2.501  31.929   9.114  0.00  0.00    -0.000 A 
ATOM     52  CE1 PHE A   4       2.263  30.707   9.716  0.00  0.00    -0.000 A 
ATOM     53  CD1 PHE A   4       1.622  30.655  10.943  0.00  0.00    -0.004 A 
ENDBRANCH  47  48
ENDBRANCH  10  47
ENDBRANCH   6  10
ENDBRANCH   5   8
BRANCH   5  54
ATOM     54  CB  PHE A   5      -4.910  31.241  10.921  0.00  0.00    +0.055 C 
BRANCH  54  55
ATOM     55  CG  PHE A   5      -5.970  30.448  10.214  0.00  0.00    -0.020 A 
ATOM     56  CD2 PHE A   5      -6.145  29.101  10.486  0.00  0.00    -0.004 A 
ATOM     57  CE2 PHE A   5      -7.133  28.372   9.840  0.00  0.00    -0.000 A 
ATOM     58  CZ  PHE A   5      -7.948  28.989   8.911  0.00  0.00    -0.000 A 
ATOM     59  CE1 PHE A   5      -7.778  30.330   8.629  0.00  0.00    -0.000 A 
ATOM     60  CD1 PHE A   5      -6.796  31.052   9.281  0.00  0.00    -0.004 A 
ENDBRANCH  54  55
ENDBRANCH   5  54
ENDBRANCH   1   5
BRANCH   3  61
ATOM     61  CA  GLU A   6      -2.967  30.542   6.639  0.00  0.00    +0.149 C 
BRANCH  61  62
ATOM     62  C   GLU A   6      -2.125  31.747   6.218  0.00  0.00    +0.241 C 
ATOM     63  N   GLY A   7      -0.951  31.880   6.835  0.00  0.00    -0.295 N 
ATOM     64  H   GLY A   7      -0.769  31.316   7.690  0.00  0.00    +0.150 HD
ATOM     65  O   GLU A   6      -2.522  32.550   5.370  0.00  0.00    -0.273 OA
BRANCH  63  66
ATOM     66  CA  GLY A   7       0.080  32.778   6.362  0.00  0.00    +0.176 C 
BRANCH  66  67
ATOM     67  C   GLY A   7       0.194  34.094   7.104  0.00  0.00    +0.243 C 
ATOM     68  N   LYS A   8      -0.819  34.475   7.881  0.00  0.00    -0.297 N 
ATOM     69  H   LYS A   8      -1.653  33.859   7.966  0.00  0.00    +0.150 HD
ATOM     70  O   GLY A   7       1.214  34.780   6.958  0.00  0.00    -0.273 OA
BRANCH  68  71
ATOM     71  CA  LYS A   8      -0.788  35.733   8.615  0.00  0.00    +0.149 C 
BRANCH  71  72
ATOM     72  C   LYS A   8      -1.421  35.535   9.985  0.00  0.00    +0.241 C 
ATOM     73  N   TYR A   9      -1.296  36.556  10.828  0.00  0.00    -0.297 N 
ATOM     74  H   TYR A   9      -0.767  37.397  10.520  0.00  0.00    +0.150 HD
ATOM     75  O   LYS A   8      -2.021  34.497  10.274  0.00  0.00    -0.273 OA
BRANCH  73  76
ATOM     76  CA  TYR A   9      -1.871  36.543  12.166  0.00  0.00    +0.153 C 
BRANCH  76  77
ATOM     77  C   TYR A   9      -3.236  37.221  12.162  0.00  0.00    +0.241 C 
ATOM     78  N   GLY A  10      -4.179  36.637  12.891  0.00  0.00    -0.295 N 
ATOM     79  H   GLY A  10      -3.965  35.743  13.378  0.00  0.00    +0.150 HD
ATOM     80  O   TYR A   9      -3.429  38.251  11.507  0.00  0.00    -0.273 OA
BRANCH  78  81
ATOM     81  CA  GLY A  10      -5.504  37.220  13.023  0.00  0.00    +0.176 C 
BRANCH  81  82
ATOM     82  C   GLY A  10      -6.122  36.880  14.360  0.00  0.00    +0.243 C 
ATOM     83  O   GLY A  10      -5.769  35.878  14.994  0.00  0.00    -0.273 OA
ATOM     84  N   GLY A  11      -7.059  37.728  14.791  0.00  0.00    -0.295 N 
ATOM     85  H   GLY A  11      -7.305  38.549  14.202  0.00  0.00    +0.150 HD
BRANCH  84  86
ATOM     86  CA  GLY A  11      -7.742  37.539  16.052  0.00  0.00    +0.176 C 
BRANCH  86  87
ATOM     87  C   GLY A  11      -8.881  36.532  15.974  0.00  0.00    +0.243 C 
ATOM     88  N   MET A  12      -9.606  36.425  17.095  0.00  0.00    -0.298 N 
ATOM     89  H   MET A  12      -9.391  37.051  17.897  0.00  0.00    +0.150 HD
ATOM     90  O   GLY A  11      -9.115  35.878  14.958  0.00  0.00    -0.273 OA
BRANCH  88  91
ATOM     91  CA  MET A  12     -10.692  35.453  17.224  0.00  0.00    +0.138 C 
BRANCH  91  92
ATOM     92  C   MET A  12     -11.770  35.671  16.174  0.00  0.00    +0.227 C 
ATOM     93  O   MET A  12     -12.442  34.720  15.753  0.00  0.00    -0.286 OA
ENDBRANCH  91  92
BRANCH  91  94
ATOM     94  CB  MET A  12     -11.335  35.609  18.601  0.00  0.00    +0.039 C 
BRANCH  94  95
ATOM     95  CG  MET A  12     -11.292  34.394  19.472  0.00  0.00    +0.060 C 
BRANCH  95  96
ATOM     96  SD  MET A  12     -12.259  34.708  20.957  0.00  0.00    -0.139 S 
ATOM     97  CE  MET A  12     -13.918  34.611  20.286  0.00  0.00    +0.069 C 
ENDBRANCH  95  96
ENDBRANCH  94  95
ENDBRANCH  91  94
ENDBRANCH  88  91
ENDBRANCH  86  87
ENDBRANCH  84  86
ENDBRANCH  81  82
ENDBRANCH  78  81
ENDBRANCH  76  77
BRANCH  76  98
ATOM     98  CB  TYR A   9      -0.944  37.243  13.162  0.00  0.00    +0.055 C 
BRANCH  98  99
ATOM     99  CG  TYR A   9       0.166  36.353  13.678  0.00  0.00    -0.020 A 
ATOM    100  CD2 TYR A   9       0.054  35.712  14.907  0.00  0.00    -0.001 A 
ATOM    101  CE2 TYR A   9       1.065  34.892  15.380  0.00  0.00    +0.036 A 
ATOM    102  CZ  TYR A   9       2.204  34.708  14.623  0.00  0.00    +0.134 A 
ATOM    103  CE1 TYR A   9       2.339  35.337  13.401  0.00  0.00    +0.036 A 
ATOM    104  CD1 TYR A   9       1.324  36.149  12.936  0.00  0.00    -0.001 A 
BRANCH 102 105
ATOM    105  OH  TYR A   9       3.210  33.897  15.090  0.00  0.00    -0.506 OA
ATOM    106  HH  TYR A   9       3.546  34.253  15.951  0.00  0.00    +0.292 HD
ENDBRANCH 102 105
ENDBRANCH  98  99
ENDBRANCH  76  98
ENDBRANCH  73  76
ENDBRANCH  71  72
BRANCH  71 107
ATOM    107  CB  LYS A   8      -1.516  36.854   7.861  0.00  0.00    +0.029 C 
BRANCH 107 108
ATOM    108  CG  LYS A   8      -0.845  37.298   6.570  0.00  0.00    +0.000 C 
BRANCH 108 109
ATOM    109  CD  LYS A   8      -1.627  38.434   5.929  0.00  0.00    -0.024 C 
BRANCH 109 110
ATOM    110  CE  LYS A   8      -0.949  38.949   4.677  0.00  0.00    -0.086 C 
BRANCH 110 111
ATOM    111  NZ  LYS A   8      -1.632  40.168   4.179  0.00  0.00    +0.380 N 
ATOM    112  HZ1 LYS A   8      -1.597  40.907   4.910  0.00  0.00    -0.089 HD
ATOM    113  HZ2 LYS A   8      -2.623  39.943   3.959  0.00  0.00    -0.089 HD
ATOM    114  HZ3 LYS A   8      -1.153  40.506   3.320  0.00  0.00    -0.089 HD
ENDBRANCH 110 111
ENDBRANCH 109 110
ENDBRANCH 108 109
ENDBRANCH 107 108
ENDBRANCH  71 107
ENDBRANCH  68  71
ENDBRANCH  66  67
ENDBRANCH  63  66
ENDBRANCH  61  62
BRANCH  61 115
ATOM    115  CB  GLU A   6      -4.361  30.570   6.007  0.00  0.00    +0.041 C 
BRANCH 115 116
ATOM    116  CG  GLU A   6      -5.127  29.266   6.177  0.00  0.00    +0.116 C 
BRANCH 116 117
ATOM    117  CD  GLU A   6      -6.448  29.252   5.434  0.00  0.00    +0.365 C 
ATOM    118  OE2 GLU A   6      -7.049  28.162   5.314  0.00  0.00    -0.246 OA
ATOM    119  OE1 GLU A   6      -6.883  30.325   4.966  0.00  0.00    -0.246 OA
ENDBRANCH 116 117
ENDBRANCH 115 116
ENDBRANCH  61 115
ENDBRANCH   3  61
TORSDOF 49
REMARK  Name = ../refined-set-2016/4ymq/4ymq_pocket.pdb
REMARK  307 active torsions:
REMARK  status: ('A' for Active; 'I' for Inactive)
REMARK    1  A    between atoms: _1  and  _3
REMARK    2  A    between atoms: _3  and  _4
REMARK    3  A    between atoms: _3  and  _6
REMARK    4  A    between atoms: _6  and  _7
REMARK    5  A    between atoms: _12  and  _13
REMARK    6  A    between atoms: _15  and  _17
REMARK    7  A    between atoms: _17  and  _18
REMARK    8  A    between atoms: _17  and  _20
REMARK    9  A    between atoms: _20  and  _21
REMARK   10  A    between atoms: _24  and  _26
REMARK   11  A    between atoms: _26  and  _27
REMARK   12  A    between atoms: _26  and  _29
REMARK   13  A    between atoms: _31  and  _33
REMARK   14  A    between atoms: _33  and  _34
REMARK   15  A    between atoms: _33  and  _36
REMARK   16  A    between atoms: _36  and  _37
REMARK   17  A    between atoms: _37  and  _38
REMARK   18  A    between atoms: _43  and  _45
REMARK   19  A    between atoms: _45  and  _46
REMARK   20  A    between atoms: _45  and  _48
REMARK   21  A    between atoms: _48  and  _49
REMARK   22  A    between atoms: _52  and  _54
REMARK   23  A    between atoms: _54  and  _55
REMARK   24  A    between atoms: _54  and  _57
REMARK   25  A    between atoms: _57  and  _58
REMARK   26  A    between atoms: _58  and  _59
REMARK   27  A    between atoms: _59  and  _60
REMARK   28  A    between atoms: _69  and  _71
REMARK   29  A    between atoms: _71  and  _72
REMARK   30  A    between atoms: _71  and  _74
REMARK   31  A    between atoms: _74  and  _75
REMARK   32  A    between atoms: _78  and  _80
REMARK   33  A    between atoms: _80  and  _81
REMARK   34  A    between atoms: _80  and  _83
REMARK   35  A    between atoms: _83  and  _84
REMARK   36  A    between atoms: _87  and  _89
REMARK   37  A    between atoms: _89  and  _90
REMARK   38  A    between atoms: _89  and  _92
REMARK   39  A    between atoms: _92  and  _93
REMARK   40  A    between atoms: _99  and  _101
REMARK   41  A    between atoms: _101  and  _102
REMARK   42  A    between atoms: _101  and  _104
REMARK   43  A    between atoms: _104  and  _105
REMARK   44  A    between atoms: _105  and  _106
REMARK   45  A    between atoms: _108  and  _110
REMARK   46  A    between atoms: _110  and  _111
REMARK   47  A    between atoms: _110  and  _113
REMARK   48  A    between atoms: _113  and  _114
REMARK   49  A    between atoms: _124  and  _126
REMARK   50  A    between atoms: _126  and  _127
REMARK   51  A    between atoms: _126  and  _129
REMARK   52  A    between atoms: _129  and  _130
REMARK   53  A    between atoms: _130  and  _131
REMARK   54  A    between atoms: _134  and  _136
REMARK   55  A    between atoms: _136  and  _137
REMARK   56  A    between atoms: _136  and  _139
REMARK   57  A    between atoms: _139  and  _140
REMARK   58  A    between atoms: _140  and  _141
REMARK   59  A    between atoms: _141  and  _142
REMARK   60  A    between atoms: _151  and  _153
REMARK   61  A    between atoms: _153  and  _154
REMARK   62  A    between atoms: _153  and  _156
REMARK   63  A    between atoms: _158  and  _160
REMARK   64  A    between atoms: _160  and  _161
REMARK   65  A    between atoms: _164  and  _166
REMARK   66  A    between atoms: _166  and  _167
REMARK   67  A    between atoms: _166  and  _169
REMARK   68  A    between atoms: _169  and  _170
REMARK   69  A    between atoms: _175  and  _177
REMARK   70  A    between atoms: _177  and  _178
REMARK   71  A    between atoms: _177  and  _180
REMARK   72  A    between atoms: _180  and  _181
REMARK   73  A    between atoms: _186  and  _188
REMARK   74  A    between atoms: _188  and  _189
REMARK   75  A    between atoms: _188  and  _191
REMARK   76  A    between atoms: _191  and  _192
REMARK   77  A    between atoms: _195  and  _197
REMARK   78  A    between atoms: _197  and  _198
REMARK   79  A    between atoms: _197  and  _200
REMARK   80  A    between atoms: _200  and  _201
REMARK   81  A    between atoms: _204  and  _206
REMARK   82  A    between atoms: _206  and  _207
REMARK   83  A    between atoms: _206  and  _209
REMARK   84  A    between atoms: _209  and  _210
REMARK   85  A    between atoms: _210  and  _211
REMARK   86  A    between atoms: _214  and  _216
REMARK   87  A    between atoms: _216  and  _217
REMARK   88  A    between atoms: _220  and  _222
REMARK   89  A    between atoms: _222  and  _223
REMARK   90  A    between atoms: _222  and  _225
REMARK   91  A    between atoms: _225  and  _226
REMARK   92  A    between atoms: _229  and  _231
REMARK   93  A    between atoms: _231  and  _232
REMARK   94  A    between atoms: _231  and  _234
REMARK   95  A    between atoms: _234  and  _235
REMARK   96  A    between atoms: _240  and  _241
REMARK   97  A    between atoms: _243  and  _245
REMARK   98  A    between atoms: _245  and  _246
REMARK   99  A    between atoms: _245  and  _248
REMARK  100  A    between atoms: _251  and  _253
REMARK  101  A    between atoms: _253  and  _254
REMARK  102  A    between atoms: _253  and  _256
REMARK  103  A    between atoms: _256  and  _257
REMARK  104  A    between atoms: _257  and  _258
REMARK  105  A    between atoms: _260  and  _262
REMARK  106  A    between atoms: _262  and  _263
REMARK  107  A    between atoms: _262  and  _265
REMARK  108  A    between atoms: _268  and  _270
REMARK  109  A    between atoms: _270  and  _271
REMARK  110  A    between atoms: _270  and  _273
REMARK  111  A    between atoms: _276  and  _278
REMARK  112  A    between atoms: _278  and  _279
REMARK  113  A    between atoms: _278  and  _281
REMARK  114  A    between atoms: _281  and  _282
REMARK  115  A    between atoms: _285  and  _287
REMARK  116  A    between atoms: _287  and  _288
REMARK  117  A    between atoms: _287  and  _290
REMARK  118  A    between atoms: _293  and  _295
REMARK  119  A    between atoms: _295  and  _296
REMARK  120  A    between atoms: _295  and  _298
REMARK  121  A    between atoms: _298  and  _299
REMARK  122  A    between atoms: _299  and  _300
REMARK  123  A    between atoms: _300  and  _301
REMARK  124  A    between atoms: _310  and  _312
REMARK  125  A    between atoms: _312  and  _313
REMARK  126  A    between atoms: _312  and  _315
REMARK  127  A    between atoms: _315  and  _316
REMARK  128  A    between atoms: _316  and  _317
REMARK  129  A    between atoms: _319  and  _321
REMARK  130  A    between atoms: _321  and  _322
REMARK  131  A    between atoms: _321  and  _324
REMARK  132  A    between atoms: _326  and  _328
REMARK  133  A    between atoms: _328  and  _329
REMARK  134  A    between atoms: _328  and  _331
REMARK  135  A    between atoms: _331  and  _332
REMARK  136  A    between atoms: _332  and  _333
REMARK  137  A    between atoms: _333  and  _334
REMARK  138  A    between atoms: _343  and  _345
REMARK  139  A    between atoms: _345  and  _346
REMARK  140  A    between atoms: _349  and  _351
REMARK  141  A    between atoms: _351  and  _352
REMARK  142  A    between atoms: _351  and  _354
REMARK  143  A    between atoms: _354  and  _355
REMARK  144  A    between atoms: _360  and  _361
REMARK  145  A    between atoms: _363  and  _365
REMARK  146  A    between atoms: _365  and  _366
REMARK  147  A    between atoms: _365  and  _368
REMARK  148  A    between atoms: _368  and  _369
REMARK  149  A    between atoms: _374  and  _376
REMARK  150  A    between atoms: _376  and  _377
REMARK  151  A    between atoms: _376  and  _379
REMARK  152  A    between atoms: _379  and  _380
REMARK  153  A    between atoms: _380  and  _381
REMARK  154  A    between atoms: _381  and  _382
REMARK  155  A    between atoms: _391  and  _393
REMARK  156  A    between atoms: _393  and  _394
REMARK  157  A    between atoms: _393  and  _396
REMARK  158  A    between atoms: _396  and  _397
REMARK  159  A    between atoms: _400  and  _402
REMARK  160  A    between atoms: _402  and  _403
REMARK  161  A    between atoms: _402  and  _405
REMARK  162  A    between atoms: _408  and  _410
REMARK  163  A    between atoms: _410  and  _411
REMARK  164  A    between atoms: _410  and  _413
REMARK  165  A    between atoms: _413  and  _414
REMARK  166  A    between atoms: _420  and  _422
REMARK  167  A    between atoms: _422  and  _423
REMARK  168  A    between atoms: _422  and  _425
REMARK  169  A    between atoms: _425  and  _426
REMARK  170  A    between atoms: _432  and  _434
REMARK  171  A    between atoms: _434  and  _435
REMARK  172  A    between atoms: _434  and  _437
REMARK  173  A    between atoms: _437  and  _438
REMARK  174  A    between atoms: _438  and  _439
REMARK  175  A    between atoms: _442  and  _444
REMARK  176  A    between atoms: _444  and  _445
REMARK  177  A    between atoms: _447  and  _449
REMARK  178  A    between atoms: _449  and  _450
REMARK  179  A    between atoms: _449  and  _452
REMARK  180  A    between atoms: _452  and  _453
REMARK  181  A    between atoms: _453  and  _454
REMARK  182  A    between atoms: _454  and  _455
REMARK  183  A    between atoms: _455  and  _456
REMARK  184  A    between atoms: _460  and  _462
REMARK  185  A    between atoms: _462  and  _463
REMARK  186  A    between atoms: _462  and  _465
REMARK  187  A    between atoms: _465  and  _466
REMARK  188  A    between atoms: _471  and  _472
REMARK  189  A    between atoms: _474  and  _476
REMARK  190  A    between atoms: _476  and  _477
REMARK  191  A    between atoms: _479  and  _481
REMARK  192  A    between atoms: _481  and  _482
REMARK  193  A    between atoms: _484  and  _486
REMARK  194  A    between atoms: _486  and  _487
REMARK  195  A    between atoms: _486  and  _489
REMARK  196  A    between atoms: _489  and  _490
REMARK  197  A    between atoms: _490  and  _491
REMARK  198  A    between atoms: _493  and  _495
REMARK  199  A    between atoms: _495  and  _496
REMARK  200  A    between atoms: _495  and  _498
REMARK  201  A    between atoms: _498  and  _499
REMARK  202  A    between atoms: _502  and  _504
REMARK  203  A    between atoms: _504  and  _505
REMARK  204  A    between atoms: _504  and  _507
REMARK  205  A    between atoms: _507  and  _508
REMARK  206  A    between atoms: _514  and  _516
REMARK  207  A    between atoms: _516  and  _517
REMARK  208  A    between atoms: _516  and  _519
REMARK  209  A    between atoms: _519  and  _520
REMARK  210  A    between atoms: _523  and  _525
REMARK  211  A    between atoms: _525  and  _526
REMARK  212  A    between atoms: _525  and  _528
REMARK  213  A    between atoms: _530  and  _532
REMARK  214  A    between atoms: _532  and  _533
REMARK  215  A    between atoms: _532  and  _535
REMARK  216  A    between atoms: _535  and  _536
REMARK  217  A    between atoms: _539  and  _541
REMARK  218  A    between atoms: _541  and  _542
REMARK  219  A    between atoms: _541  and  _544
REMARK  220  A    between atoms: _544  and  _545
REMARK  221  A    between atoms: _548  and  _550
REMARK  222  A    between atoms: _550  and  _551
REMARK  223  A    between atoms: _550  and  _553
REMARK  224  A    between atoms: _553  and  _554
REMARK  225  A    between atoms: _556  and  _558
REMARK  226  A    between atoms: _558  and  _559
REMARK  227  A    between atoms: _558  and  _561
REMARK  228  A    between atoms: _561  and  _562
REMARK  229  A    between atoms: _564  and  _566
REMARK  230  A    between atoms: _566  and  _567
REMARK  231  A    between atoms: _566  and  _569
REMARK  232  A    between atoms: _569  and  _570
REMARK  233  A    between atoms: _573  and  _575
REMARK  234  A    between atoms: _575  and  _576
REMARK  235  A    between atoms: _575  and  _578
REMARK  236  A    between atoms: _578  and  _579
REMARK  237  A    between atoms: _585  and  _587
REMARK  238  A    between atoms: _587  and  _588
REMARK  239  A    between atoms: _587  and  _590
REMARK  240  A    between atoms: _590  and  _591
REMARK  241  A    between atoms: _594  and  _596
REMARK  242  A    between atoms: _596  and  _597
REMARK  243  A    between atoms: _596  and  _599
REMARK  244  A    between atoms: _599  and  _600
REMARK  245  A    between atoms: _606  and  _608
REMARK  246  A    between atoms: _608  and  _609
REMARK  247  A    between atoms: _608  and  _611
REMARK  248  A    between atoms: _611  and  _612
REMARK  249  A    between atoms: _614  and  _616
REMARK  250  A    between atoms: _616  and  _617
REMARK  251  A    between atoms: _616  and  _619
REMARK  252  A    between atoms: _619  and  _620
REMARK  253  A    between atoms: _625  and  _627
REMARK  254  A    between atoms: _627  and  _628
REMARK  255  A    between atoms: _627  and  _630
REMARK  256  A    between atoms: _630  and  _631
REMARK  257  A    between atoms: _633  and  _635
REMARK  258  A    between atoms: _635  and  _636
REMARK  259  A    between atoms: _635  and  _638
REMARK  260  A    between atoms: _638  and  _639
REMARK  261  A    between atoms: _639  and  _640
REMARK  262  A    between atoms: _643  and  _645
REMARK  263  A    between atoms: _645  and  _646
REMARK  264  A    between atoms: _645  and  _648
REMARK  265  A    between atoms: _648  and  _649
REMARK  266  A    between atoms: _652  and  _654
REMARK  267  A    between atoms: _654  and  _655
REMARK  268  A    between atoms: _654  and  _657
REMARK  269  A    between atoms: _657  and  _658
REMARK  270  A    between atoms: _661  and  _663
REMARK  271  A    between atoms: _663  and  _664
REMARK  272  A    between atoms: _663  and  _666
REMARK  273  A    between atoms: _668  and  _670
REMARK  274  A    between atoms: _670  and  _671
REMARK  275  A    between atoms: _670  and  _673
REMARK  276  A    between atoms: _673  and  _674
REMARK  277  A    between atoms: _674  and  _675
REMARK  278  A    between atoms: _680  and  _682
REMARK  279  A    between atoms: _682  and  _683
REMARK  280  A    between atoms: _682  and  _685
REMARK  281  A    between atoms: _685  and  _686
REMARK  282  A    between atoms: _691  and  _693
REMARK  283  A    between atoms: _693  and  _694
REMARK  284  A    between atoms: _693  and  _696
REMARK  285  A    between atoms: _699  and  _701
REMARK  286  A    between atoms: _701  and  _702
REMARK  287  A    between atoms: _701  and  _704
REMARK  288  A    between atoms: _704  and  _705
REMARK  289  A    between atoms: _705  and  _706
REMARK  290  A    between atoms: _706  and  _707
REMARK  291  A    between atoms: _716  and  _718
REMARK  292  A    between atoms: _718  and  _719
REMARK  293  A    between atoms: _718  and  _721
REMARK  294  A    between atoms: _721  and  _722
REMARK  295  A    between atoms: _725  and  _727
REMARK  296  A    between atoms: _727  and  _728
REMARK  297  A    between atoms: _727  and  _730
REMARK  298  A    between atoms: _730  and  _731
REMARK  299  A    between atoms: _737  and  _739
REMARK  300  A    between atoms: _739  and  _740
REMARK  301  A    between atoms: _739  and  _742
REMARK  302  A    between atoms: _742  and  _743
REMARK  303  A    between atoms: _748  and  _749
REMARK  304  A    between atoms: _751  and  _753
REMARK  305  A    between atoms: _753  and  _754
REMARK  306  A    between atoms: _753  and  _756
REMARK  307  A    between atoms: _756  and  _757
REMARK                            x       y       z     vdW  Elec       q    Type
REMARK                         _______ _______ _______ _____ _____    ______ ____
ROOT
ATOM      1  C   LEU A   1     -12.221  34.263  11.703  0.00  0.00    +0.238 C 
ATOM      2  N   PHE A   2     -12.591  33.587  12.789  0.00  0.00    -0.298 N 
ATOM      3  H   PHE A   2     -12.415  34.014  13.721  0.00  0.00    +0.150 HD
ATOM      4  O   LEU A   1     -12.563  33.921  10.566  0.00  0.00    -0.274 OA
ENDROOT
BRANCH   1   5
ATOM      5  CA  LEU A   1     -11.364  35.505  11.904  0.00  0.00    +0.145 C 
BRANCH   5   6
ATOM      6  N   LEU A   1     -11.623  36.134  13.191  0.00  0.00    -0.238 NA
ATOM      7  H   LEU A   1     -10.865  36.189  13.901  0.00  0.00    +0.142 HD
ENDBRANCH   5   6
BRANCH   5   8
ATOM      8  CB  LEU A   1      -9.887  35.133  11.803  0.00  0.00    +0.026 C 
BRANCH   8   9
ATOM      9  CG  LEU A   1      -9.311  35.122  10.390  0.00  0.00    +0.002 C 
ATOM     10  CD2 LEU A   1      -8.248  34.050  10.263  0.00  0.00    +0.000 C 
ATOM     11  CD1 LEU A   1      -8.748  36.486  10.043  0.00  0.00    +0.000 C 
ENDBRANCH   8   9
ENDBRANCH   5   8
ENDBRANCH   1   5
BRANCH   2  12
ATOM     12  CA  PHE A   2     -13.230  32.279  12.736  0.00  0.00    +0.141 C 
BRANCH  12  13
ATOM     13  C   PHE A   2     -14.731  32.339  12.985  0.00  0.00    +0.227 C 
ATOM     14  O   PHE A   2     -15.344  31.307  13.275  0.00  0.00    -0.286 OA
ENDBRANCH  12  13
BRANCH  12  15
ATOM     15  CB  PHE A   2     -12.551  31.338  13.730  0.00  0.00    +0.054 C 
BRANCH  15  16
ATOM     16  CG  PHE A   2     -11.057  31.296  13.583  0.00  0.00    -0.020 A 
ATOM     17  CD2 PHE A   2     -10.244  32.108  14.363  0.00  0.00    -0.004 A 
ATOM     18  CE2 PHE A   2      -8.873  32.082  14.215  0.00  0.00    -0.000 A 
ATOM     19  CZ  PHE A   2      -8.298  31.245  13.277  0.00  0.00    -0.000 A 
ATOM     20  CE1 PHE A   2      -9.096  30.435  12.490  0.00  0.00    -0.000 A 
ATOM     21  CD1 PHE A   2     -10.467  30.462  12.644  0.00  0.00    -0.004 A 
ENDBRANCH  15  16
ENDBRANCH  12  15
ENDBRANCH   2  12
TORSDOF 8
REMARK  Name = ../refined-set-2016/4ymq/4ymq_pocket.pdb
REMARK  307 active torsions:
REMARK  status: ('A' for Active; 'I' for Inactive)
REMARK    1  A    between atoms: _1  and  _3
REMARK    2  A    between atoms: _3  and  _4
REMARK    3  A    between atoms: _3  and  _6
REMARK    4  A    between atoms: _6  and  _7
REMARK    5  A    between atoms: _12  and  _13
REMARK    6  A    between atoms: _15  and  _17
REMARK    7  A    between atoms: _17  and  _18
REMARK    8  A    between atoms: _17  and  _20
REMARK    9  A    between atoms: _20  and  _21
REMARK   10  A    between atoms: _24  and  _26
REMARK   11  A    between atoms: _26  and  _27
REMARK   12  A    between atoms: _26  and  _29
REMARK   13  A    between atoms: _31  and  _33
REMARK   14  A    between atoms: _33  and  _34
REMARK   15  A    between atoms: _33  and  _36
REMARK   16  A    between atoms: _36  and  _37
REMARK   17  A    between atoms: _37  and  _38
REMARK   18  A    between atoms: _43  and  _45
REMARK   19  A    between atoms: _45  and  _46
REMARK   20  A    between atoms: _45  and  _48
REMARK   21  A    between atoms: _48  and  _49
REMARK   22  A    between atoms: _52  and  _54
REMARK   23  A    between atoms: _54  and  _55
REMARK   24  A    between atoms: _54  and  _57
REMARK   25  A    between atoms: _57  and  _58
REMARK   26  A    between atoms: _58  and  _59
REMARK   27  A    between atoms: _59  and  _60
REMARK   28  A    between atoms: _69  and  _71
REMARK   29  A    between atoms: _71  and  _72
REMARK   30  A    between atoms: _71  and  _74
REMARK   31  A    between atoms: _74  and  _75
REMARK   32  A    between atoms: _78  and  _80
REMARK   33  A    between atoms: _80  and  _81
REMARK   34  A    between atoms: _80  and  _83
REMARK   35  A    between atoms: _83  and  _84
REMARK   36  A    between atoms: _87  and  _89
REMARK   37  A    between atoms: _89  and  _90
REMARK   38  A    between atoms: _89  and  _92
REMARK   39  A    between atoms: _92  and  _93
REMARK   40  A    between atoms: _99  and  _101
REMARK   41  A    between atoms: _101  and  _102
REMARK   42  A    between atoms: _101  and  _104
REMARK   43  A    between atoms: _104  and  _105
REMARK   44  A    between atoms: _105  and  _106
REMARK   45  A    between atoms: _108  and  _110
REMARK   46  A    between atoms: _110  and  _111
REMARK   47  A    between atoms: _110  and  _113
REMARK   48  A    between atoms: _113  and  _114
REMARK   49  A    between atoms: _124  and  _126
REMARK   50  A    between atoms: _126  and  _127
REMARK   51  A    between atoms: _126  and  _129
REMARK   52  A    between atoms: _129  and  _130
REMARK   53  A    between atoms: _130  and  _131
REMARK   54  A    between atoms: _134  and  _136
REMARK   55  A    between atoms: _136  and  _137
REMARK   56  A    between atoms: _136  and  _139
REMARK   57  A    between atoms: _139  and  _140
REMARK   58  A    between atoms: _140  and  _141
REMARK   59  A    between atoms: _141  and  _142
REMARK   60  A    between atoms: _151  and  _153
REMARK   61  A    between atoms: _153  and  _154
REMARK   62  A    between atoms: _153  and  _156
REMARK   63  A    between atoms: _158  and  _160
REMARK   64  A    between atoms: _160  and  _161
REMARK   65  A    between atoms: _164  and  _166
REMARK   66  A    between atoms: _166  and  _167
REMARK   67  A    between atoms: _166  and  _169
REMARK   68  A    between atoms: _169  and  _170
REMARK   69  A    between atoms: _175  and  _177
REMARK   70  A    between atoms: _177  and  _178
REMARK   71  A    between atoms: _177  and  _180
REMARK   72  A    between atoms: _180  and  _181
REMARK   73  A    between atoms: _186  and  _188
REMARK   74  A    between atoms: _188  and  _189
REMARK   75  A    between atoms: _188  and  _191
REMARK   76  A    between atoms: _191  and  _192
REMARK   77  A    between atoms: _195  and  _197
REMARK   78  A    between atoms: _197  and  _198
REMARK   79  A    between atoms: _197  and  _200
REMARK   80  A    between atoms: _200  and  _201
REMARK   81  A    between atoms: _204  and  _206
REMARK   82  A    between atoms: _206  and  _207
REMARK   83  A    between atoms: _206  and  _209
REMARK   84  A    between atoms: _209  and  _210
REMARK   85  A    between atoms: _210  and  _211
REMARK   86  A    between atoms: _214  and  _216
REMARK   87  A    between atoms: _216  and  _217
REMARK   88  A    between atoms: _220  and  _222
REMARK   89  A    between atoms: _222  and  _223
REMARK   90  A    between atoms: _222  and  _225
REMARK   91  A    between atoms: _225  and  _226
REMARK   92  A    between atoms: _229  and  _231
REMARK   93  A    between atoms: _231  and  _232
REMARK   94  A    between atoms: _231  and  _234
REMARK   95  A    between atoms: _234  and  _235
REMARK   96  A    between atoms: _240  and  _241
REMARK   97  A    between atoms: _243  and  _245
REMARK   98  A    between atoms: _245  and  _246
REMARK   99  A    between atoms: _245  and  _248
REMARK  100  A    between atoms: _251  and  _253
REMARK  101  A    between atoms: _253  and  _254
REMARK  102  A    between atoms: _253  and  _256
REMARK  103  A    between atoms: _256  and  _257
REMARK  104  A    between atoms: _257  and  _258
REMARK  105  A    between atoms: _260  and  _262
REMARK  106  A    between atoms: _262  and  _263
REMARK  107  A    between atoms: _262  and  _265
REMARK  108  A    between atoms: _268  and  _270
REMARK  109  A    between atoms: _270  and  _271
REMARK  110  A    between atoms: _270  and  _273
REMARK  111  A    between atoms: _276  and  _278
REMARK  112  A    between atoms: _278  and  _279
REMARK  113  A    between atoms: _278  and  _281
REMARK  114  A    between atoms: _281  and  _282
REMARK  115  A    between atoms: _285  and  _287
REMARK  116  A    between atoms: _287  and  _288
REMARK  117  A    between atoms: _287  and  _290
REMARK  118  A    between atoms: _293  and  _295
REMARK  119  A    between atoms: _295  and  _296
REMARK  120  A    between atoms: _295  and  _298
REMARK  121  A    between atoms: _298  and  _299
REMARK  122  A    between atoms: _299  and  _300
REMARK  123  A    between atoms: _300  and  _301
REMARK  124  A    between atoms: _310  and  _312
REMARK  125  A    between atoms: _312  and  _313
REMARK  126  A    between atoms: _312  and  _315
REMARK  127  A    between atoms: _315  and  _316
REMARK  128  A    between atoms: _316  and  _317
REMARK  129  A    between atoms: _319  and  _321
REMARK  130  A    between atoms: _321  and  _322
REMARK  131  A    between atoms: _321  and  _324
REMARK  132  A    between atoms: _326  and  _328
REMARK  133  A    between atoms: _328  and  _329
REMARK  134  A    between atoms: _328  and  _331
REMARK  135  A    between atoms: _331  and  _332
REMARK  136  A    between atoms: _332  and  _333
REMARK  137  A    between atoms: _333  and  _334
REMARK  138  A    between atoms: _343  and  _345
REMARK  139  A    between atoms: _345  and  _346
REMARK  140  A    between atoms: _349  and  _351
REMARK  141  A    between atoms: _351  and  _352
REMARK  142  A    between atoms: _351  and  _354
REMARK  143  A    between atoms: _354  and  _355
REMARK  144  A    between atoms: _360  and  _361
REMARK  145  A    between atoms: _363  and  _365
REMARK  146  A    between atoms: _365  and  _366
REMARK  147  A    between atoms: _365  and  _368
REMARK  148  A    between atoms: _368  and  _369
REMARK  149  A    between atoms: _374  and  _376
REMARK  150  A    between atoms: _376  and  _377
REMARK  151  A    between atoms: _376  and  _379
REMARK  152  A    between atoms: _379  and  _380
REMARK  153  A    between atoms: _380  and  _381
REMARK  154  A    between atoms: _381  and  _382
REMARK  155  A    between atoms: _391  and  _393
REMARK  156  A    between atoms: _393  and  _394
REMARK  157  A    between atoms: _393  and  _396
REMARK  158  A    between atoms: _396  and  _397
REMARK  159  A    between atoms: _400  and  _402
REMARK  160  A    between atoms: _402  and  _403
REMARK  161  A    between atoms: _402  and  _405
REMARK  162  A    between atoms: _408  and  _410
REMARK  163  A    between atoms: _410  and  _411
REMARK  164  A    between atoms: _410  and  _413
REMARK  165  A    between atoms: _413  and  _414
REMARK  166  A    between atoms: _420  and  _422
REMARK  167  A    between atoms: _422  and  _423
REMARK  168  A    between atoms: _422  and  _425
REMARK  169  A    between atoms: _425  and  _426
REMARK  170  A    between atoms: _432  and  _434
REMARK  171  A    between atoms: _434  and  _435
REMARK  172  A    between atoms: _434  and  _437
REMARK  173  A    between atoms: _437  and  _438
REMARK  174  A    between atoms: _438  and  _439
REMARK  175  A    between atoms: _442  and  _444
REMARK  176  A    between atoms: _444  and  _445
REMARK  177  A    between atoms: _447  and  _449
REMARK  178  A    between atoms: _449  and  _450
REMARK  179  A    between atoms: _449  and  _452
REMARK  180  A    between atoms: _452  and  _453
REMARK  181  A    between atoms: _453  and  _454
REMARK  182  A    between atoms: _454  and  _455
REMARK  183  A    between atoms: _455  and  _456
REMARK  184  A    between atoms: _460  and  _462
REMARK  185  A    between atoms: _462  and  _463
REMARK  186  A    between atoms: _462  and  _465
REMARK  187  A    between atoms: _465  and  _466
REMARK  188  A    between atoms: _471  and  _472
REMARK  189  A    between atoms: _474  and  _476
REMARK  190  A    between atoms: _476  and  _477
REMARK  191  A    between atoms: _479  and  _481
REMARK  192  A    between atoms: _481  and  _482
REMARK  193  A    between atoms: _484  and  _486
REMARK  194  A    between atoms: _486  and  _487
REMARK  195  A    between atoms: _486  and  _489
REMARK  196  A    between atoms: _489  and  _490
REMARK  197  A    between atoms: _490  and  _491
REMARK  198  A    between atoms: _493  and  _495
REMARK  199  A    between atoms: _495  and  _496
REMARK  200  A    between atoms: _495  and  _498
REMARK  201  A    between atoms: _498  and  _499
REMARK  202  A    between atoms: _502  and  _504
REMARK  203  A    between atoms: _504  and  _505
REMARK  204  A    between atoms: _504  and  _507
REMARK  205  A    between atoms: _507  and  _508
REMARK  206  A    between atoms: _514  and  _516
REMARK  207  A    between atoms: _516  and  _517
REMARK  208  A    between atoms: _516  and  _519
REMARK  209  A    between atoms: _519  and  _520
REMARK  210  A    between atoms: _523  and  _525
REMARK  211  A    between atoms: _525  and  _526
REMARK  212  A    between atoms: _525  and  _528
REMARK  213  A    between atoms: _530  and  _532
REMARK  214  A    between atoms: _532  and  _533
REMARK  215  A    between atoms: _532  and  _535
REMARK  216  A    between atoms: _535  and  _536
REMARK  217  A    between atoms: _539  and  _541
REMARK  218  A    between atoms: _541  and  _542
REMARK  219  A    between atoms: _541  and  _544
REMARK  220  A    between atoms: _544  and  _545
REMARK  221  A    between atoms: _548  and  _550
REMARK  222  A    between atoms: _550  and  _551
REMARK  223  A    between atoms: _550  and  _553
REMARK  224  A    between atoms: _553  and  _554
REMARK  225  A    between atoms: _556  and  _558
REMARK  226  A    between atoms: _558  and  _559
REMARK  227  A    between atoms: _558  and  _561
REMARK  228  A    between atoms: _561  and  _562
REMARK  229  A    between atoms: _564  and  _566
REMARK  230  A    between atoms: _566  and  _567
REMARK  231  A    between atoms: _566  and  _569
REMARK  232  A    between atoms: _569  and  _570
REMARK  233  A    between atoms: _573  and  _575
REMARK  234  A    between atoms: _575  and  _576
REMARK  235  A    between atoms: _575  and  _578
REMARK  236  A    between atoms: _578  and  _579
REMARK  237  A    between atoms: _585  and  _587
REMARK  238  A    between atoms: _587  and  _588
REMARK  239  A    between atoms: _587  and  _590
REMARK  240  A    between atoms: _590  and  _591
REMARK  241  A    between atoms: _594  and  _596
REMARK  242  A    between atoms: _596  and  _597
REMARK  243  A    between atoms: _596  and  _599
REMARK  244  A    between atoms: _599  and  _600
REMARK  245  A    between atoms: _606  and  _608
REMARK  246  A    between atoms: _608  and  _609
REMARK  247  A    between atoms: _608  and  _611
REMARK  248  A    between atoms: _611  and  _612
REMARK  249  A    between atoms: _614  and  _616
REMARK  250  A    between atoms: _616  and  _617
REMARK  251  A    between atoms: _616  and  _619
REMARK  252  A    between atoms: _619  and  _620
REMARK  253  A    between atoms: _625  and  _627
REMARK  254  A    between atoms: _627  and  _628
REMARK  255  A    between atoms: _627  and  _630
REMARK  256  A    between atoms: _630  and  _631
REMARK  257  A    between atoms: _633  and  _635
REMARK  258  A    between atoms: _635  and  _636
REMARK  259  A    between atoms: _635  and  _638
REMARK  260  A    between atoms: _638  and  _639
REMARK  261  A    between atoms: _639  and  _640
REMARK  262  A    between atoms: _643  and  _645
REMARK  263  A    between atoms: _645  and  _646
REMARK  264  A    between atoms: _645  and  _648
REMARK  265  A    between atoms: _648  and  _649
REMARK  266  A    between atoms: _652  and  _654
REMARK  267  A    between atoms: _654  and  _655
REMARK  268  A    between atoms: _654  and  _657
REMARK  269  A    between atoms: _657  and  _658
REMARK  270  A    between atoms: _661  and  _663
REMARK  271  A    between atoms: _663  and  _664
REMARK  272  A    between atoms: _663  and  _666
REMARK  273  A    between atoms: _668  and  _670
REMARK  274  A    between atoms: _670  and  _671
REMARK  275  A    between atoms: _670  and  _673
REMARK  276  A    between atoms: _673  and  _674
REMARK  277  A    between atoms: _674  and  _675
REMARK  278  A    between atoms: _680  and  _682
REMARK  279  A    between atoms: _682  and  _683
REMARK  280  A    between atoms: _682  and  _685
REMARK  281  A    between atoms: _685  and  _686
REMARK  282  A    between atoms: _691  and  _693
REMARK  283  A    between atoms: _693  and  _694
REMARK  284  A    between atoms: _693  and  _696
REMARK  285  A    between atoms: _699  and  _701
REMARK  286  A    between atoms: _701  and  _702
REMARK  287  A    between atoms: _701  and  _704
REMARK  288  A    between atoms: _704  and  _705
REMARK  289  A    between atoms: _705  and  _706
REMARK  290  A    between atoms: _706  and  _707
REMARK  291  A    between atoms: _716  and  _718
REMARK  292  A    between atoms: _718  and  _719
REMARK  293  A    between atoms: _718  and  _721
REMARK  294  A    between atoms: _721  and  _722
REMARK  295  A    between atoms: _725  and  _727
REMARK  296  A    between atoms: _727  and  _728
REMARK  297  A    between atoms: _727  and  _730
REMARK  298  A    between atoms: _730  and  _731
REMARK  299  A    between atoms: _737  and  _739
REMARK  300  A    between atoms: _739  and  _740
REMARK  301  A    between atoms: _739  and  _742
REMARK  302  A    between atoms: _742  and  _743
REMARK  303  A    between atoms: _748  and  _749
REMARK  304  A    between atoms: _751  and  _753
REMARK  305  A    between atoms: _753  and  _754
REMARK  306  A    between atoms: _753  and  _756
REMARK  307  A    between atoms: _756  and  _757
REMARK                            x       y       z     vdW  Elec       q    Type
REMARK                         _______ _______ _______ _____ _____    ______ ____
ROOT
ATOM      1  CA  LEU A   1     -17.570  28.485  12.015  0.00  0.00    +0.133 C 
ENDROOT
BRANCH   1   2
ATOM      2  N   LEU A   1     -17.435  29.851  11.517  0.00  0.00    -0.239 NA
ATOM      3  H   LEU A   1     -16.636  30.437  11.833  0.00  0.00    +0.142 HD
ENDBRANCH   1   2
BRANCH   1   4
ATOM      4  C   LEU A   1     -18.824  28.308  12.860  0.00  0.00    +0.224 C 
ATOM      5  O   LEU A   1     -19.336  27.189  12.974  0.00  0.00    -0.287 OA
ENDBRANCH   1   4
BRANCH   1   6
ATOM      6  CB  LEU A   1     -16.350  28.102  12.850  0.00  0.00    +0.025 C 
BRANCH   6   7
ATOM      7  CG  LEU A   1     -15.024  27.937  12.118  0.00  0.00    +0.002 C 
ATOM      8  CD2 LEU A   1     -13.915  27.731  13.136  0.00  0.00    +0.000 C 
ATOM      9  CD1 LEU A   1     -15.101  26.754  11.175  0.00  0.00    +0.000 C 
ENDBRANCH   6   7
ENDBRANCH   1   6
TORSDOF 4
REMARK  Name = ../refined-set-2016/4ymq/4ymq_pocket.pdb
REMARK  307 active torsions:
REMARK  status: ('A' for Active; 'I' for Inactive)
REMARK    1  A    between atoms: _1  and  _3
REMARK    2  A    between atoms: _3  and  _4
REMARK    3  A    between atoms: _3  and  _6
REMARK    4  A    between atoms: _6  and  _7
REMARK    5  A    between atoms: _12  and  _13
REMARK    6  A    between atoms: _15  and  _17
REMARK    7  A    between atoms: _17  and  _18
REMARK    8  A    between atoms: _17  and  _20
REMARK    9  A    between atoms: _20  and  _21
REMARK   10  A    between atoms: _24  and  _26
REMARK   11  A    between atoms: _26  and  _27
REMARK   12  A    between atoms: _26  and  _29
REMARK   13  A    between atoms: _31  and  _33
REMARK   14  A    between atoms: _33  and  _34
REMARK   15  A    between atoms: _33  and  _36
REMARK   16  A    between atoms: _36  and  _37
REMARK   17  A    between atoms: _37  and  _38
REMARK   18  A    between atoms: _43  and  _45
REMARK   19  A    between atoms: _45  and  _46
REMARK   20  A    between atoms: _45  and  _48
REMARK   21  A    between atoms: _48  and  _49
REMARK   22  A    between atoms: _52  and  _54
REMARK   23  A    between atoms: _54  and  _55
REMARK   24  A    between atoms: _54  and  _57
REMARK   25  A    between atoms: _57  and  _58
REMARK   26  A    between atoms: _58  and  _59
REMARK   27  A    between atoms: _59  and  _60
REMARK   28  A    between atoms: _69  and  _71
REMARK   29  A    between atoms: _71  and  _72
REMARK   30  A    between atoms: _71  and  _74
REMARK   31  A    between atoms: _74  and  _75
REMARK   32  A    between atoms: _78  and  _80
REMARK   33  A    between atoms: _80  and  _81
REMARK   34  A    between atoms: _80  and  _83
REMARK   35  A    between atoms: _83  and  _84
REMARK   36  A    between atoms: _87  and  _89
REMARK   37  A    between atoms: _89  and  _90
REMARK   38  A    between atoms: _89  and  _92
REMARK   39  A    between atoms: _92  and  _93
REMARK   40  A    between atoms: _99  and  _101
REMARK   41  A    between atoms: _101  and  _102
REMARK   42  A    between atoms: _101  and  _104
REMARK   43  A    between atoms: _104  and  _105
REMARK   44  A    between atoms: _105  and  _106
REMARK   45  A    between atoms: _108  and  _110
REMARK   46  A    between atoms: _110  and  _111
REMARK   47  A    between atoms: _110  and  _113
REMARK   48  A    between atoms: _113  and  _114
REMARK   49  A    between atoms: _124  and  _126
REMARK   50  A    between atoms: _126  and  _127
REMARK   51  A    between atoms: _126  and  _129
REMARK   52  A    between atoms: _129  and  _130
REMARK   53  A    between atoms: _130  and  _131
REMARK   54  A    between atoms: _134  and  _136
REMARK   55  A    between atoms: _136  and  _137
REMARK   56  A    between atoms: _136  and  _139
REMARK   57  A    between atoms: _139  and  _140
REMARK   58  A    between atoms: _140  and  _141
REMARK   59  A    between atoms: _141  and  _142
REMARK   60  A    between atoms: _151  and  _153
REMARK   61  A    between atoms: _153  and  _154
REMARK   62  A    between atoms: _153  and  _156
REMARK   63  A    between atoms: _158  and  _160
REMARK   64  A    between atoms: _160  and  _161
REMARK   65  A    between atoms: _164  and  _166
REMARK   66  A    between atoms: _166  and  _167
REMARK   67  A    between atoms: _166  and  _169
REMARK   68  A    between atoms: _169  and  _170
REMARK   69  A    between atoms: _175  and  _177
REMARK   70  A    between atoms: _177  and  _178
REMARK   71  A    between atoms: _177  and  _180
REMARK   72  A    between atoms: _180  and  _181
REMARK   73  A    between atoms: _186  and  _188
REMARK   74  A    between atoms: _188  and  _189
REMARK   75  A    between atoms: _188  and  _191
REMARK   76  A    between atoms: _191  and  _192
REMARK   77  A    between atoms: _195  and  _197
REMARK   78  A    between atoms: _197  and  _198
REMARK   79  A    between atoms: _197  and  _200
REMARK   80  A    between atoms: _200  and  _201
REMARK   81  A    between atoms: _204  and  _206
REMARK   82  A    between atoms: _206  and  _207
REMARK   83  A    between atoms: _206  and  _209
REMARK   84  A    between atoms: _209  and  _210
REMARK   85  A    between atoms: _210  and  _211
REMARK   86  A    between atoms: _214  and  _216
REMARK   87  A    between atoms: _216  and  _217
REMARK   88  A    between atoms: _220  and  _222
REMARK   89  A    between atoms: _222  and  _223
REMARK   90  A    between atoms: _222  and  _225
REMARK   91  A    between atoms: _225  and  _226
REMARK   92  A    between atoms: _229  and  _231
REMARK   93  A    between atoms: _231  and  _232
REMARK   94  A    between atoms: _231  and  _234
REMARK   95  A    between atoms: _234  and  _235
REMARK   96  A    between atoms: _240  and  _241
REMARK   97  A    between atoms: _243  and  _245
REMARK   98  A    between atoms: _245  and  _246
REMARK   99  A    between atoms: _245  and  _248
REMARK  100  A    between atoms: _251  and  _253
REMARK  101  A    between atoms: _253  and  _254
REMARK  102  A    between atoms: _253  and  _256
REMARK  103  A    between atoms: _256  and  _257
REMARK  104  A    between atoms: _257  and  _258
REMARK  105  A    between atoms: _260  and  _262
REMARK  106  A    between atoms: _262  and  _263
REMARK  107  A    between atoms: _262  and  _265
REMARK  108  A    between atoms: _268  and  _270
REMARK  109  A    between atoms: _270  and  _271
REMARK  110  A    between atoms: _270  and  _273
REMARK  111  A    between atoms: _276  and  _278
REMARK  112  A    between atoms: _278  and  _279
REMARK  113  A    between atoms: _278  and  _281
REMARK  114  A    between atoms: _281  and  _282
REMARK  115  A    between atoms: _285  and  _287
REMARK  116  A    between atoms: _287  and  _288
REMARK  117  A    between atoms: _287  and  _290
REMARK  118  A    between atoms: _293  and  _295
REMARK  119  A    between atoms: _295  and  _296
REMARK  120  A    between atoms: _295  and  _298
REMARK  121  A    between atoms: _298  and  _299
REMARK  122  A    between atoms: _299  and  _300
REMARK  123  A    between atoms: _300  and  _301
REMARK  124  A    between atoms: _310  and  _312
REMARK  125  A    between atoms: _312  and  _313
REMARK  126  A    between atoms: _312  and  _315
REMARK  127  A    between atoms: _315  and  _316
REMARK  128  A    between atoms: _316  and  _317
REMARK  129  A    between atoms: _319  and  _321
REMARK  130  A    between atoms: _321  and  _322
REMARK  131  A    between atoms: _321  and  _324
REMARK  132  A    between atoms: _326  and  _328
REMARK  133  A    between atoms: _328  and  _329
REMARK  134  A    between atoms: _328  and  _331
REMARK  135  A    between atoms: _331  and  _332
REMARK  136  A    between atoms: _332  and  _333
REMARK  137  A    between atoms: _333  and  _334
REMARK  138  A    between atoms: _343  and  _345
REMARK  139  A    between atoms: _345  and  _346
REMARK  140  A    between atoms: _349  and  _351
REMARK  141  A    between atoms: _351  and  _352
REMARK  142  A    between atoms: _351  and  _354
REMARK  143  A    between atoms: _354  and  _355
REMARK  144  A    between atoms: _360  and  _361
REMARK  145  A    between atoms: _363  and  _365
REMARK  146  A    between atoms: _365  and  _366
REMARK  147  A    between atoms: _365  and  _368
REMARK  148  A    between atoms: _368  and  _369
REMARK  149  A    between atoms: _374  and  _376
REMARK  150  A    between atoms: _376  and  _377
REMARK  151  A    between atoms: _376  and  _379
REMARK  152  A    between atoms: _379  and  _380
REMARK  153  A    between atoms: _380  and  _381
REMARK  154  A    between atoms: _381  and  _382
REMARK  155  A    between atoms: _391  and  _393
REMARK  156  A    between atoms: _393  and  _394
REMARK  157  A    between atoms: _393  and  _396
REMARK  158  A    between atoms: _396  and  _397
REMARK  159  A    between atoms: _400  and  _402
REMARK  160  A    between atoms: _402  and  _403
REMARK  161  A    between atoms: _402  and  _405
REMARK  162  A    between atoms: _408  and  _410
REMARK  163  A    between atoms: _410  and  _411
REMARK  164  A    between atoms: _410  and  _413
REMARK  165  A    between atoms: _413  and  _414
REMARK  166  A    between atoms: _420  and  _422
REMARK  167  A    between atoms: _422  and  _423
REMARK  168  A    between atoms: _422  and  _425
REMARK  169  A    between atoms: _425  and  _426
REMARK  170  A    between atoms: _432  and  _434
REMARK  171  A    between atoms: _434  and  _435
REMARK  172  A    between atoms: _434  and  _437
REMARK  173  A    between atoms: _437  and  _438
REMARK  174  A    between atoms: _438  and  _439
REMARK  175  A    between atoms: _442  and  _444
REMARK  176  A    between atoms: _444  and  _445
REMARK  177  A    between atoms: _447  and  _449
REMARK  178  A    between atoms: _449  and  _450
REMARK  179  A    between atoms: _449  and  _452
REMARK  180  A    between atoms: _452  and  _453
REMARK  181  A    between atoms: _453  and  _454
REMARK  182  A    between atoms: _454  and  _455
REMARK  183  A    between atoms: _455  and  _456
REMARK  184  A    between atoms: _460  and  _462
REMARK  185  A    between atoms: _462  and  _463
REMARK  186  A    between atoms: _462  and  _465
REMARK  187  A    between atoms: _465  and  _466
REMARK  188  A    between atoms: _471  and  _472
REMARK  189  A    between atoms: _474  and  _476
REMARK  190  A    between atoms: _476  and  _477
REMARK  191  A    between atoms: _479  and  _481
REMARK  192  A    between atoms: _481  and  _482
REMARK  193  A    between atoms: _484  and  _486
REMARK  194  A    between atoms: _486  and  _487
REMARK  195  A    between atoms: _486  and  _489
REMARK  196  A    between atoms: _489  and  _490
REMARK  197  A    between atoms: _490  and  _491
REMARK  198  A    between atoms: _493  and  _495
REMARK  199  A    between atoms: _495  and  _496
REMARK  200  A    between atoms: _495  and  _498
REMARK  201  A    between atoms: _498  and  _499
REMARK  202  A    between atoms: _502  and  _504
REMARK  203  A    between atoms: _504  and  _505
REMARK  204  A    between atoms: _504  and  _507
REMARK  205  A    between atoms: _507  and  _508
REMARK  206  A    between atoms: _514  and  _516
REMARK  207  A    between atoms: _516  and  _517
REMARK  208  A    between atoms: _516  and  _519
REMARK  209  A    between atoms: _519  and  _520
REMARK  210  A    between atoms: _523  and  _525
REMARK  211  A    between atoms: _525  and  _526
REMARK  212  A    between atoms: _525  and  _528
REMARK  213  A    between atoms: _530  and  _532
REMARK  214  A    between atoms: _532  and  _533
REMARK  215  A    between atoms: _532  and  _535
REMARK  216  A    between atoms: _535  and  _536
REMARK  217  A    between atoms: _539  and  _541
REMARK  218  A    between atoms: _541  and  _542
REMARK  219  A    between atoms: _541  and  _544
REMARK  220  A    between atoms: _544  and  _545
REMARK  221  A    between atoms: _548  and  _550
REMARK  222  A    between atoms: _550  and  _551
REMARK  223  A    between atoms: _550  and  _553
REMARK  224  A    between atoms: _553  and  _554
REMARK  225  A    between atoms: _556  and  _558
REMARK  226  A    between atoms: _558  and  _559
REMARK  227  A    between atoms: _558  and  _561
REMARK  228  A    between atoms: _561  and  _562
REMARK  229  A    between atoms: _564  and  _566
REMARK  230  A    between atoms: _566  and  _567
REMARK  231  A    between atoms: _566  and  _569
REMARK  232  A    between atoms: _569  and  _570
REMARK  233  A    between atoms: _573  and  _575
REMARK  234  A    between atoms: _575  and  _576
REMARK  235  A    between atoms: _575  and  _578
REMARK  236  A    between atoms: _578  and  _579
REMARK  237  A    between atoms: _585  and  _587
REMARK  238  A    between atoms: _587  and  _588
REMARK  239  A    between atoms: _587  and  _590
REMARK  240  A    between atoms: _590  and  _591
REMARK  241  A    between atoms: _594  and  _596
REMARK  242  A    between atoms: _596  and  _597
REMARK  243  A    between atoms: _596  and  _599
REMARK  244  A    between atoms: _599  and  _600
REMARK  245  A    between atoms: _606  and  _608
REMARK  246  A    between atoms: _608  and  _609
REMARK  247  A    between atoms: _608  and  _611
REMARK  248  A    between atoms: _611  and  _612
REMARK  249  A    between atoms: _614  and  _616
REMARK  250  A    between atoms: _616  and  _617
REMARK  251  A    between atoms: _616  and  _619
REMARK  252  A    between atoms: _619  and  _620
REMARK  253  A    between atoms: _625  and  _627
REMARK  254  A    between atoms: _627  and  _628
REMARK  255  A    between atoms: _627  and  _630
REMARK  256  A    between atoms: _630  and  _631
REMARK  257  A    between atoms: _633  and  _635
REMARK  258  A    between atoms: _635  and  _636
REMARK  259  A    between atoms: _635  and  _638
REMARK  260  A    between atoms: _638  and  _639
REMARK  261  A    between atoms: _639  and  _640
REMARK  262  A    between atoms: _643  and  _645
REMARK  263  A    between atoms: _645  and  _646
REMARK  264  A    between atoms: _645  and  _648
REMARK  265  A    between atoms: _648  and  _649
REMARK  266  A    between atoms: _652  and  _654
REMARK  267  A    between atoms: _654  and  _655
REMARK  268  A    between atoms: _654  and  _657
REMARK  269  A    between atoms: _657  and  _658
REMARK  270  A    between atoms: _661  and  _663
REMARK  271  A    between atoms: _663  and  _664
REMARK  272  A    between atoms: _663  and  _666
REMARK  273  A    between atoms: _668  and  _670
REMARK  274  A    between atoms: _670  and  _671
REMARK  275  A    between atoms: _670  and  _673
REMARK  276  A    between atoms: _673  and  _674
REMARK  277  A    between atoms: _674  and  _675
REMARK  278  A    between atoms: _680  and  _682
REMARK  279  A    between atoms: _682  and  _683
REMARK  280  A    between atoms: _682  and  _685
REMARK  281  A    between atoms: _685  and  _686
REMARK  282  A    between atoms: _691  and  _693
REMARK  283  A    between atoms: _693  and  _694
REMARK  284  A    between atoms: _693  and  _696
REMARK  285  A    between atoms: _699  and  _701
REMARK  286  A    between atoms: _701  and  _702
REMARK  287  A    between atoms: _701  and  _704
REMARK  288  A    between atoms: _704  and  _705
REMARK  289  A    between atoms: _705  and  _706
REMARK  290  A    between atoms: _706  and  _707
REMARK  291  A    between atoms: _716  and  _718
REMARK  292  A    between atoms: _718  and  _719
REMARK  293  A    between atoms: _718  and  _721
REMARK  294  A    between atoms: _721  and  _722
REMARK  295  A    between atoms: _725  and  _727
REMARK  296  A    between atoms: _727  and  _728
REMARK  297  A    between atoms: _727  and  _730
REMARK  298  A    between atoms: _730  and  _731
REMARK  299  A    between atoms: _737  and  _739
REMARK  300  A    between atoms: _739  and  _740
REMARK  301  A    between atoms: _739  and  _742
REMARK  302  A    between atoms: _742  and  _743
REMARK  303  A    between atoms: _748  and  _749
REMARK  304  A    between atoms: _751  and  _753
REMARK  305  A    between atoms: _753  and  _754
REMARK  306  A    between atoms: _753  and  _756
REMARK  307  A    between atoms: _756  and  _757
REMARK                            x       y       z     vdW  Elec       q    Type
REMARK                         _______ _______ _______ _____ _____    ______ ____
ROOT
ATOM      1  CA  CYS A   1     -18.585  27.879  17.415  0.00  0.00    +0.145 C 
ENDROOT
BRANCH   1   2
ATOM      2  N   CYS A   1     -18.924  28.536  16.158  0.00  0.00    -0.238 NA
ATOM      3  H   CYS A   1     -18.200  29.103  15.671  0.00  0.00    +0.142 HD
ENDBRANCH   1   2
BRANCH   1   4
ATOM      4  C   CYS A   1     -17.713  28.821  18.251  0.00  0.00    +0.225 C 
ATOM      5  O   CYS A   1     -16.591  28.507  18.649  0.00  0.00    -0.287 OA
ENDBRANCH   1   4
BRANCH   1   6
ATOM      6  CB  CYS A   1     -17.991  26.486  17.198  0.00  0.00    +0.094 C 
ATOM      7  SG  CYS A   1     -16.494  26.415  16.207  0.00  0.00    -0.080 S 
ENDBRANCH   1   6
TORSDOF 3
REMARK  Name = ../refined-set-2016/4ymq/4ymq_pocket.pdb
REMARK  307 active torsions:
REMARK  status: ('A' for Active; 'I' for Inactive)
REMARK    1  A    between atoms: _1  and  _3
REMARK    2  A    between atoms: _3  and  _4
REMARK    3  A    between atoms: _3  and  _6
REMARK    4  A    between atoms: _6  and  _7
REMARK    5  A    between atoms: _12  and  _13
REMARK    6  A    between atoms: _15  and  _17
REMARK    7  A    between atoms: _17  and  _18
REMARK    8  A    between atoms: _17  and  _20
REMARK    9  A    between atoms: _20  and  _21
REMARK   10  A    between atoms: _24  and  _26
REMARK   11  A    between atoms: _26  and  _27
REMARK   12  A    between atoms: _26  and  _29
REMARK   13  A    between atoms: _31  and  _33
REMARK   14  A    between atoms: _33  and  _34
REMARK   15  A    between atoms: _33  and  _36
REMARK   16  A    between atoms: _36  and  _37
REMARK   17  A    between atoms: _37  and  _38
REMARK   18  A    between atoms: _43  and  _45
REMARK   19  A    between atoms: _45  and  _46
REMARK   20  A    between atoms: _45  and  _48
REMARK   21  A    between atoms: _48  and  _49
REMARK   22  A    between atoms: _52  and  _54
REMARK   23  A    between atoms: _54  and  _55
REMARK   24  A    between atoms: _54  and  _57
REMARK   25  A    between atoms: _57  and  _58
REMARK   26  A    between atoms: _58  and  _59
REMARK   27  A    between atoms: _59  and  _60
REMARK   28  A    between atoms: _69  and  _71
REMARK   29  A    between atoms: _71  and  _72
REMARK   30  A    between atoms: _71  and  _74
REMARK   31  A    between atoms: _74  and  _75
REMARK   32  A    between atoms: _78  and  _80
REMARK   33  A    between atoms: _80  and  _81
REMARK   34  A    between atoms: _80  and  _83
REMARK   35  A    between atoms: _83  and  _84
REMARK   36  A    between atoms: _87  and  _89
REMARK   37  A    between atoms: _89  and  _90
REMARK   38  A    between atoms: _89  and  _92
REMARK   39  A    between atoms: _92  and  _93
REMARK   40  A    between atoms: _99  and  _101
REMARK   41  A    between atoms: _101  and  _102
REMARK   42  A    between atoms: _101  and  _104
REMARK   43  A    between atoms: _104  and  _105
REMARK   44  A    between atoms: _105  and  _106
REMARK   45  A    between atoms: _108  and  _110
REMARK   46  A    between atoms: _110  and  _111
REMARK   47  A    between atoms: _110  and  _113
REMARK   48  A    between atoms: _113  and  _114
REMARK   49  A    between atoms: _124  and  _126
REMARK   50  A    between atoms: _126  and  _127
REMARK   51  A    between atoms: _126  and  _129
REMARK   52  A    between atoms: _129  and  _130
REMARK   53  A    between atoms: _130  and  _131
REMARK   54  A    between atoms: _134  and  _136
REMARK   55  A    between atoms: _136  and  _137
REMARK   56  A    between atoms: _136  and  _139
REMARK   57  A    between atoms: _139  and  _140
REMARK   58  A    between atoms: _140  and  _141
REMARK   59  A    between atoms: _141  and  _142
REMARK   60  A    between atoms: _151  and  _153
REMARK   61  A    between atoms: _153  and  _154
REMARK   62  A    between atoms: _153  and  _156
REMARK   63  A    between atoms: _158  and  _160
REMARK   64  A    between atoms: _160  and  _161
REMARK   65  A    between atoms: _164  and  _166
REMARK   66  A    between atoms: _166  and  _167
REMARK   67  A    between atoms: _166  and  _169
REMARK   68  A    between atoms: _169  and  _170
REMARK   69  A    between atoms: _175  and  _177
REMARK   70  A    between atoms: _177  and  _178
REMARK   71  A    between atoms: _177  and  _180
REMARK   72  A    between atoms: _180  and  _181
REMARK   73  A    between atoms: _186  and  _188
REMARK   74  A    between atoms: _188  and  _189
REMARK   75  A    between atoms: _188  and  _191
REMARK   76  A    between atoms: _191  and  _192
REMARK   77  A    between atoms: _195  and  _197
REMARK   78  A    between atoms: _197  and  _198
REMARK   79  A    between atoms: _197  and  _200
REMARK   80  A    between atoms: _200  and  _201
REMARK   81  A    between atoms: _204  and  _206
REMARK   82  A    between atoms: _206  and  _207
REMARK   83  A    between atoms: _206  and  _209
REMARK   84  A    between atoms: _209  and  _210
REMARK   85  A    between atoms: _210  and  _211
REMARK   86  A    between atoms: _214  and  _216
REMARK   87  A    between atoms: _216  and  _217
REMARK   88  A    between atoms: _220  and  _222
REMARK   89  A    between atoms: _222  and  _223
REMARK   90  A    between atoms: _222  and  _225
REMARK   91  A    between atoms: _225  and  _226
REMARK   92  A    between atoms: _229  and  _231
REMARK   93  A    between atoms: _231  and  _232
REMARK   94  A    between atoms: _231  and  _234
REMARK   95  A    between atoms: _234  and  _235
REMARK   96  A    between atoms: _240  and  _241
REMARK   97  A    between atoms: _243  and  _245
REMARK   98  A    between atoms: _245  and  _246
REMARK   99  A    between atoms: _245  and  _248
REMARK  100  A    between atoms: _251  and  _253
REMARK  101  A    between atoms: _253  and  _254
REMARK  102  A    between atoms: _253  and  _256
REMARK  103  A    between atoms: _256  and  _257
REMARK  104  A    between atoms: _257  and  _258
REMARK  105  A    between atoms: _260  and  _262
REMARK  106  A    between atoms: _262  and  _263
REMARK  107  A    between atoms: _262  and  _265
REMARK  108  A    between atoms: _268  and  _270
REMARK  109  A    between atoms: _270  and  _271
REMARK  110  A    between atoms: _270  and  _273
REMARK  111  A    between atoms: _276  and  _278
REMARK  112  A    between atoms: _278  and  _279
REMARK  113  A    between atoms: _278  and  _281
REMARK  114  A    between atoms: _281  and  _282
REMARK  115  A    between atoms: _285  and  _287
REMARK  116  A    between atoms: _287  and  _288
REMARK  117  A    between atoms: _287  and  _290
REMARK  118  A    between atoms: _293  and  _295
REMARK  119  A    between atoms: _295  and  _296
REMARK  120  A    between atoms: _295  and  _298
REMARK  121  A    between atoms: _298  and  _299
REMARK  122  A    between atoms: _299  and  _300
REMARK  123  A    between atoms: _300  and  _301
REMARK  124  A    between atoms: _310  and  _312
REMARK  125  A    between atoms: _312  and  _313
REMARK  126  A    between atoms: _312  and  _315
REMARK  127  A    between atoms: _315  and  _316
REMARK  128  A    between atoms: _316  and  _317
REMARK  129  A    between atoms: _319  and  _321
REMARK  130  A    between atoms: _321  and  _322
REMARK  131  A    between atoms: _321  and  _324
REMARK  132  A    between atoms: _326  and  _328
REMARK  133  A    between atoms: _328  and  _329
REMARK  134  A    between atoms: _328  and  _331
REMARK  135  A    between atoms: _331  and  _332
REMARK  136  A    between atoms: _332  and  _333
REMARK  137  A    between atoms: _333  and  _334
REMARK  138  A    between atoms: _343  and  _345
REMARK  139  A    between atoms: _345  and  _346
REMARK  140  A    between atoms: _349  and  _351
REMARK  141  A    between atoms: _351  and  _352
REMARK  142  A    between atoms: _351  and  _354
REMARK  143  A    between atoms: _354  and  _355
REMARK  144  A    between atoms: _360  and  _361
REMARK  145  A    between atoms: _363  and  _365
REMARK  146  A    between atoms: _365  and  _366
REMARK  147  A    between atoms: _365  and  _368
REMARK  148  A    between atoms: _368  and  _369
REMARK  149  A    between atoms: _374  and  _376
REMARK  150  A    between atoms: _376  and  _377
REMARK  151  A    between atoms: _376  and  _379
REMARK  152  A    between atoms: _379  and  _380
REMARK  153  A    between atoms: _380  and  _381
REMARK  154  A    between atoms: _381  and  _382
REMARK  155  A    between atoms: _391  and  _393
REMARK  156  A    between atoms: _393  and  _394
REMARK  157  A    between atoms: _393  and  _396
REMARK  158  A    between atoms: _396  and  _397
REMARK  159  A    between atoms: _400  and  _402
REMARK  160  A    between atoms: _402  and  _403
REMARK  161  A    between atoms: _402  and  _405
REMARK  162  A    between atoms: _408  and  _410
REMARK  163  A    between atoms: _410  and  _411
REMARK  164  A    between atoms: _410  and  _413
REMARK  165  A    between atoms: _413  and  _414
REMARK  166  A    between atoms: _420  and  _422
REMARK  167  A    between atoms: _422  and  _423
REMARK  168  A    between atoms: _422  and  _425
REMARK  169  A    between atoms: _425  and  _426
REMARK  170  A    between atoms: _432  and  _434
REMARK  171  A    between atoms: _434  and  _435
REMARK  172  A    between atoms: _434  and  _437
REMARK  173  A    between atoms: _437  and  _438
REMARK  174  A    between atoms: _438  and  _439
REMARK  175  A    between atoms: _442  and  _444
REMARK  176  A    between atoms: _444  and  _445
REMARK  177  A    between atoms: _447  and  _449
REMARK  178  A    between atoms: _449  and  _450
REMARK  179  A    between atoms: _449  and  _452
REMARK  180  A    between atoms: _452  and  _453
REMARK  181  A    between atoms: _453  and  _454
REMARK  182  A    between atoms: _454  and  _455
REMARK  183  A    between atoms: _455  and  _456
REMARK  184  A    between atoms: _460  and  _462
REMARK  185  A    between atoms: _462  and  _463
REMARK  186  A    between atoms: _462  and  _465
REMARK  187  A    between atoms: _465  and  _466
REMARK  188  A    between atoms: _471  and  _472
REMARK  189  A    between atoms: _474  and  _476
REMARK  190  A    between atoms: _476  and  _477
REMARK  191  A    between atoms: _479  and  _481
REMARK  192  A    between atoms: _481  and  _482
REMARK  193  A    between atoms: _484  and  _486
REMARK  194  A    between atoms: _486  and  _487
REMARK  195  A    between atoms: _486  and  _489
REMARK  196  A    between atoms: _489  and  _490
REMARK  197  A    between atoms: _490  and  _491
REMARK  198  A    between atoms: _493  and  _495
REMARK  199  A    between atoms: _495  and  _496
REMARK  200  A    between atoms: _495  and  _498
REMARK  201  A    between atoms: _498  and  _499
REMARK  202  A    between atoms: _502  and  _504
REMARK  203  A    between atoms: _504  and  _505
REMARK  204  A    between atoms: _504  and  _507
REMARK  205  A    between atoms: _507  and  _508
REMARK  206  A    between atoms: _514  and  _516
REMARK  207  A    between atoms: _516  and  _517
REMARK  208  A    between atoms: _516  and  _519
REMARK  209  A    between atoms: _519  and  _520
REMARK  210  A    between atoms: _523  and  _525
REMARK  211  A    between atoms: _525  and  _526
REMARK  212  A    between atoms: _525  and  _528
REMARK  213  A    between atoms: _530  and  _532
REMARK  214  A    between atoms: _532  and  _533
REMARK  215  A    between atoms: _532  and  _535
REMARK  216  A    between atoms: _535  and  _536
REMARK  217  A    between atoms: _539  and  _541
REMARK  218  A    between atoms: _541  and  _542
REMARK  219  A    between atoms: _541  and  _544
REMARK  220  A    between atoms: _544  and  _545
REMARK  221  A    between atoms: _548  and  _550
REMARK  222  A    between atoms: _550  and  _551
REMARK  223  A    between atoms: _550  and  _553
REMARK  224  A    between atoms: _553  and  _554
REMARK  225  A    between atoms: _556  and  _558
REMARK  226  A    between atoms: _558  and  _559
REMARK  227  A    between atoms: _558  and  _561
REMARK  228  A    between atoms: _561  and  _562
REMARK  229  A    between atoms: _564  and  _566
REMARK  230  A    between atoms: _566  and  _567
REMARK  231  A    between atoms: _566  and  _569
REMARK  232  A    between atoms: _569  and  _570
REMARK  233  A    between atoms: _573  and  _575
REMARK  234  A    between atoms: _575  and  _576
REMARK  235  A    between atoms: _575  and  _578
REMARK  236  A    between atoms: _578  and  _579
REMARK  237  A    between atoms: _585  and  _587
REMARK  238  A    between atoms: _587  and  _588
REMARK  239  A    between atoms: _587  and  _590
REMARK  240  A    between atoms: _590  and  _591
REMARK  241  A    between atoms: _594  and  _596
REMARK  242  A    between atoms: _596  and  _597
REMARK  243  A    between atoms: _596  and  _599
REMARK  244  A    between atoms: _599  and  _600
REMARK  245  A    between atoms: _606  and  _608
REMARK  246  A    between atoms: _608  and  _609
REMARK  247  A    between atoms: _608  and  _611
REMARK  248  A    between atoms: _611  and  _612
REMARK  249  A    between atoms: _614  and  _616
REMARK  250  A    between atoms: _616  and  _617
REMARK  251  A    between atoms: _616  and  _619
REMARK  252  A    between atoms: _619  and  _620
REMARK  253  A    between atoms: _625  and  _627
REMARK  254  A    between atoms: _627  and  _628
REMARK  255  A    between atoms: _627  and  _630
REMARK  256  A    between atoms: _630  and  _631
REMARK  257  A    between atoms: _633  and  _635
REMARK  258  A    between atoms: _635  and  _636
REMARK  259  A    between atoms: _635  and  _638
REMARK  260  A    between atoms: _638  and  _639
REMARK  261  A    between atoms: _639  and  _640
REMARK  262  A    between atoms: _643  and  _645
REMARK  263  A    between atoms: _645  and  _646
REMARK  264  A    between atoms: _645  and  _648
REMARK  265  A    between atoms: _648  and  _649
REMARK  266  A    between atoms: _652  and  _654
REMARK  267  A    between atoms: _654  and  _655
REMARK  268  A    between atoms: _654  and  _657
REMARK  269  A    between atoms: _657  and  _658
REMARK  270  A    between atoms: _661  and  _663
REMARK  271  A    between atoms: _663  and  _664
REMARK  272  A    between atoms: _663  and  _666
REMARK  273  A    between atoms: _668  and  _670
REMARK  274  A    between atoms: _670  and  _671
REMARK  275  A    between atoms: _670  and  _673
REMARK  276  A    between atoms: _673  and  _674
REMARK  277  A    between atoms: _674  and  _675
REMARK  278  A    between atoms: _680  and  _682
REMARK  279  A    between atoms: _682  and  _683
REMARK  280  A    between atoms: _682  and  _685
REMARK  281  A    between atoms: _685  and  _686
REMARK  282  A    between atoms: _691  and  _693
REMARK  283  A    between atoms: _693  and  _694
REMARK  284  A    between atoms: _693  and  _696
REMARK  285  A    between atoms: _699  and  _701
REMARK  286  A    between atoms: _701  and  _702
REMARK  287  A    between atoms: _701  and  _704
REMARK  288  A    between atoms: _704  and  _705
REMARK  289  A    between atoms: _705  and  _706
REMARK  290  A    between atoms: _706  and  _707
REMARK  291  A    between atoms: _716  and  _718
REMARK  292  A    between atoms: _718  and  _719
REMARK  293  A    between atoms: _718  and  _721
REMARK  294  A    between atoms: _721  and  _722
REMARK  295  A    between atoms: _725  and  _727
REMARK  296  A    between atoms: _727  and  _728
REMARK  297  A    between atoms: _727  and  _730
REMARK  298  A    between atoms: _730  and  _731
REMARK  299  A    between atoms: _737  and  _739
REMARK  300  A    between atoms: _739  and  _740
REMARK  301  A    between atoms: _739  and  _742
REMARK  302  A    between atoms: _742  and  _743
REMARK  303  A    between atoms: _748  and  _749
REMARK  304  A    between atoms: _751  and  _753
REMARK  305  A    between atoms: _753  and  _754
REMARK  306  A    between atoms: _753  and  _756
REMARK  307  A    between atoms: _756  and  _757
REMARK                            x       y       z     vdW  Elec       q    Type
REMARK                         _______ _______ _______ _____ _____    ______ ____
ROOT
ATOM      1  CA  PHE A   6      -7.727  31.244  22.637  0.00  0.00    +0.153 C 
ENDROOT
BRANCH   1   4
ATOM      2  C   ILE A   5      -8.038  28.846  22.880  0.00  0.00    +0.241 C 
ATOM      3  O   ILE A   5      -6.864  28.710  23.244  0.00  0.00    -0.273 OA
ATOM      4  N   PHE A   6      -8.534  30.033  22.521  0.00  0.00    -0.297 N 
ATOM      5  H   PHE A   6      -9.505  30.095  22.155  0.00  0.00    +0.150 HD
BRANCH   2   6
ATOM      6  CA  ILE A   5      -8.983  27.652  22.825  0.00  0.00    +0.149 C 
BRANCH   6   9
ATOM      7  C   SER A   4     -10.509  28.282  24.604  0.00  0.00    +0.243 C 
ATOM      8  O   SER A   4      -9.594  28.236  25.434  0.00  0.00    -0.273 OA
ATOM      9  N   ILE A   5     -10.309  28.022  23.311  0.00  0.00    -0.297 N 
ATOM     10  H   ILE A   5     -11.104  28.083  22.644  0.00  0.00    +0.150 HD
BRANCH   7  11
ATOM     11  CA  SER A   4     -11.926  28.641  25.036  0.00  0.00    +0.178 C 
BRANCH  11  14
ATOM     12  C   SER A   3     -12.101  30.725  23.801  0.00  0.00    +0.243 C 
ATOM     13  O   SER A   3     -11.120  31.183  24.397  0.00  0.00    -0.273 OA
ATOM     14  N   SER A   4     -12.579  29.505  24.055  0.00  0.00    -0.295 N 
ATOM     15  H   SER A   4     -13.423  29.167  23.551  0.00  0.00    +0.150 HD
BRANCH  12  16
ATOM     16  CA  SER A   3     -12.805  31.542  22.718  0.00  0.00    +0.178 C 
BRANCH  16  18
ATOM     17  C   ILE A   2     -12.311  30.033  20.883  0.00  0.00    +0.241 C 
ATOM     18  N   SER A   3     -13.219  30.697  21.603  0.00  0.00    -0.295 N 
ATOM     19  H   SER A   3     -14.228  30.611  21.367  0.00  0.00    +0.150 HD
ATOM     20  O   ILE A   2     -11.101  30.096  21.132  0.00  0.00    -0.273 OA
BRANCH  17  21
ATOM     21  CA  ILE A   2     -12.835  29.187  19.730  0.00  0.00    +0.148 C 
BRANCH  21  24
ATOM     22  C   LEU A   1     -13.856  27.507  21.173  0.00  0.00    +0.238 C 
ATOM     23  O   LEU A   1     -12.781  27.312  21.756  0.00  0.00    -0.274 OA
ATOM     24  N   ILE A   2     -13.975  28.381  20.169  0.00  0.00    -0.297 N 
ATOM     25  H   ILE A   2     -14.893  28.490  19.692  0.00  0.00    +0.150 HD
BRANCH  22  26
ATOM     26  CA  LEU A   1     -15.110  26.733  21.568  0.00  0.00    +0.145 C 
BRANCH  26  27
ATOM     27  N   LEU A   1     -16.258  27.623  21.703  0.00  0.00    -0.238 NA
ATOM     28  H   LEU A   1     -17.072  27.514  21.065  0.00  0.00    +0.142 HD
ENDBRANCH  26  27
BRANCH  26  29
ATOM     29  CB  LEU A   1     -15.415  25.648  20.537  0.00  0.00    +0.026 C 
BRANCH  29  30
ATOM     30  CG  LEU A   1     -14.211  24.790  20.137  0.00  0.00    +0.002 C 
ATOM     31  CD2 LEU A   1     -13.666  24.037  21.347  0.00  0.00    +0.000 C 
ATOM     32  CD1 LEU A   1     -14.591  23.823  19.026  0.00  0.00    +0.000 C 
ENDBRANCH  29  30
ENDBRANCH  26  29
ENDBRANCH  22  26
ENDBRANCH  21  24
BRANCH  21  33
ATOM     33  CB  ILE A   2     -13.224  30.062  18.522  0.00  0.00    +0.027 C 
ATOM     34  CG2 ILE A   2     -12.070  30.982  18.131  0.00  0.00    +0.002 C 
BRANCH  33  35
ATOM     35  CG1 ILE A   2     -13.642  29.197  17.331  0.00  0.00    +0.002 C 
ATOM     36  CD1 ILE A   2     -12.530  28.325  16.776  0.00  0.00    +0.000 C 
ENDBRANCH  33  35
ENDBRANCH  21  33
ENDBRANCH  17  21
ENDBRANCH  16  18
BRANCH  16  37
ATOM     37  CB  SER A   3     -14.020  32.279  23.281  0.00  0.00    +0.166 C 
BRANCH  37  38
ATOM     38  OG  SER A   3     -13.645  33.509  23.874  0.00  0.00    -0.380 OA
ATOM     39  H   SER A   3     -13.214  34.084  23.193  0.00  0.00    +0.211 HD
ENDBRANCH  37  38
ENDBRANCH  16  37
ENDBRANCH  12  16
ENDBRANCH  11  14
BRANCH  11  40
ATOM     40  CB  SER A   4     -12.754  27.373  25.250  0.00  0.00    +0.166 C 
BRANCH  40  41
ATOM     41  OG  SER A   4     -14.039  27.687  25.751  0.00  0.00    -0.380 OA
ATOM     42  H   SER A   4     -14.511  28.270  25.105  0.00  0.00    +0.211 HD
ENDBRANCH  40  41
ENDBRANCH  11  40
ENDBRANCH   7  11
ENDBRANCH   6   9
BRANCH   6  43
ATOM     43  CB  ILE A   5      -9.082  27.047  21.414  0.00  0.00    +0.027 C 
ATOM     44  CG2 ILE A   5      -7.695  26.778  20.850  0.00  0.00    +0.002 C 
BRANCH  43  45
ATOM     45  CG1 ILE A   5      -9.906  25.760  21.455  0.00  0.00    +0.002 C 
ATOM     46  CD1 ILE A   5     -10.181  25.177  20.085  0.00  0.00    +0.000 C 
ENDBRANCH  43  45
ENDBRANCH   6  43
ENDBRANCH   2   6
ENDBRANCH   1   4
BRANCH   1  47
ATOM     47  C   PHE A   6      -7.314  31.500  24.083  0.00  0.00    +0.241 C 
ATOM     48  N   ASP A   7      -8.244  31.332  25.029  0.00  0.00    -0.297 N 
ATOM     49  H   ASP A   7      -9.214  31.074  24.757  0.00  0.00    +0.150 HD
ATOM     50  O   PHE A   6      -6.159  31.850  24.350  0.00  0.00    -0.273 OA
BRANCH  48  51
ATOM     51  CA  ASP A   7      -7.910  31.507  26.441  0.00  0.00    +0.160 C 
BRANCH  51  52
ATOM     52  C   ASP A   7      -6.870  30.492  26.889  0.00  0.00    +0.241 C 
ATOM     53  O   ASP A   7      -5.928  30.834  27.616  0.00  0.00    -0.273 OA
ATOM     54  N   PHE A   8      -7.037  29.230  26.479  0.00  0.00    -0.297 N 
ATOM     55  H   PHE A   8      -7.857  28.986  25.887  0.00  0.00    +0.150 HD
BRANCH  54  56
ATOM     56  CA  PHE A   8      -6.084  28.192  26.851  0.00  0.00    +0.153 C 
BRANCH  56  57
ATOM     57  C   PHE A   8      -4.686  28.525  26.346  0.00  0.00    +0.241 C 
ATOM     58  O   PHE A   8      -3.706  28.405  27.089  0.00  0.00    -0.273 OA
ATOM     59  N   SER A   9      -4.576  28.952  25.084  0.00  0.00    -0.295 N 
ATOM     60  H   SER A   9      -5.420  28.989  24.478  0.00  0.00    +0.150 HD
BRANCH  59  61
ATOM     61  CA  SER A   9      -3.284  29.367  24.548  0.00  0.00    +0.178 C 
BRANCH  61  62
ATOM     62  C   SER A   9      -2.754  30.588  25.286  0.00  0.00    +0.243 C 
ATOM     63  N   HIS A  10      -3.651  31.488  25.688  0.00  0.00    -0.298 N 
ATOM     64  H   HIS A  10      -4.656  31.355  25.454  0.00  0.00    +0.150 HD
ATOM     65  O   SER A   9      -1.541  30.726  25.488  0.00  0.00    -0.273 OA
BRANCH  63  66
ATOM     66  CA  HIS A  10      -3.235  32.658  26.453  0.00  0.00    +0.143 C 
BRANCH  66  67
ATOM     67  C   HIS A  10      -2.654  32.246  27.799  0.00  0.00    +0.227 C 
ATOM     68  O   HIS A  10      -1.657  32.814  28.257  0.00  0.00    -0.286 OA
ENDBRANCH  66  67
BRANCH  66  69
ATOM     69  CB  HIS A  10      -4.426  33.597  26.641  0.00  0.00    +0.075 C 
BRANCH  69  70
ATOM     70  CG  HIS A  10      -4.044  34.980  27.064  0.00  0.00    +0.082 A 
ATOM     71  CD2 HIS A  10      -3.902  35.531  28.293  0.00  0.00    +0.115 A 
ATOM     72  NE2 HIS A  10      -3.530  36.841  28.111  0.00  0.00    -0.221 NA
ATOM     73  CE1 HIS A  10      -3.446  37.086  26.815  0.00  0.00    +0.199 A 
ATOM     74  ND1 HIS A  10      -3.750  35.979  26.161  0.00  0.00    -0.227 NA
ENDBRANCH  69  70
ENDBRANCH  66  69
ENDBRANCH  63  66
ENDBRANCH  61  62
BRANCH  61  75
ATOM     75  CB  SER A   9      -3.406  29.670  23.054  0.00  0.00    +0.166 C 
BRANCH  75  76
ATOM     76  OG  SER A   9      -3.410  28.486  22.278  0.00  0.00    -0.380 OA
ATOM     77  H   SER A   9      -3.490  28.721  21.320  0.00  0.00    +0.211 HD
ENDBRANCH  75  76
ENDBRANCH  61  75
ENDBRANCH  59  61
ENDBRANCH  56  57
BRANCH  56  78
ATOM     78  CB  PHE A   8      -6.556  26.842  26.311  0.00  0.00    +0.055 C 
BRANCH  78  79
ATOM     79  CG  PHE A   8      -5.673  25.688  26.698  0.00  0.00    -0.020 A 
ATOM     80  CD2 PHE A   8      -5.669  25.209  27.996  0.00  0.00    -0.004 A 
ATOM     81  CE2 PHE A   8      -4.859  24.145  28.358  0.00  0.00    -0.000 A 
ATOM     82  CZ  PHE A   8      -4.054  23.546  27.421  0.00  0.00    -0.000 A 
ATOM     83  CE1 PHE A   8      -4.052  24.006  26.117  0.00  0.00    -0.000 A 
ATOM     84  CD1 PHE A   8      -4.857  25.074  25.762  0.00  0.00    -0.004 A 
ENDBRANCH  78  79
ENDBRANCH  56  78
ENDBRANCH  54  56
ENDBRANCH  51  52
BRANCH  51  85
ATOM     85  CB  ASP A   7      -9.163  31.374  27.307  0.00  0.00    +0.143 C 
BRANCH  85  86
ATOM     86  CG  ASP A   7     -10.179  32.462  27.035  0.00  0.00    +0.367 C 
ATOM     87  OD2 ASP A   7     -11.360  32.264  27.389  0.00  0.00    -0.246 OA
ATOM     88  OD1 ASP A   7      -9.797  33.515  26.474  0.00  0.00    -0.246 OA
ENDBRANCH  85  86
ENDBRANCH  51  85
ENDBRANCH  48  51
ENDBRANCH   1  47
BRANCH   1  89
ATOM     89  CB  PHE A   6      -8.491  32.441  22.065  0.00  0.00    +0.055 C 
BRANCH  89  90
ATOM     90  CG  PHE A   6      -8.223  32.697  20.602  0.00  0.00    -0.020 A 
ATOM     91  CD2 PHE A   6      -7.562  33.849  20.199  0.00  0.00    -0.004 A 
ATOM     92  CE2 PHE A   6      -7.320  34.096  18.858  0.00  0.00    -0.000 A 
ATOM     93  CZ  PHE A   6      -7.743  33.193  17.901  0.00  0.00    -0.000 A 
ATOM     94  CE1 PHE A   6      -8.403  32.040  18.286  0.00  0.00    -0.000 A 
ATOM     95  CD1 PHE A   6      -8.645  31.798  19.633  0.00  0.00    -0.004 A 
ENDBRANCH  89  90
ENDBRANCH   1  89
TORSDOF 40
REMARK  Name = ../refined-set-2016/4ymq/4ymq_pocket.pdb
REMARK  307 active torsions:
REMARK  status: ('A' for Active; 'I' for Inactive)
REMARK    1  A    between atoms: _1  and  _3
REMARK    2  A    between atoms: _3  and  _4
REMARK    3  A    between atoms: _3  and  _6
REMARK    4  A    between atoms: _6  and  _7
REMARK    5  A    between atoms: _12  and  _13
REMARK    6  A    between atoms: _15  and  _17
REMARK    7  A    between atoms: _17  and  _18
REMARK    8  A    between atoms: _17  and  _20
REMARK    9  A    between atoms: _20  and  _21
REMARK   10  A    between atoms: _24  and  _26
REMARK   11  A    between atoms: _26  and  _27
REMARK   12  A    between atoms: _26  and  _29
REMARK   13  A    between atoms: _31  and  _33
REMARK   14  A    between atoms: _33  and  _34
REMARK   15  A    between atoms: _33  and  _36
REMARK   16  A    between atoms: _36  and  _37
REMARK   17  A    between atoms: _37  and  _38
REMARK   18  A    between atoms: _43  and  _45
REMARK   19  A    between atoms: _45  and  _46
REMARK   20  A    between atoms: _45  and  _48
REMARK   21  A    between atoms: _48  and  _49
REMARK   22  A    between atoms: _52  and  _54
REMARK   23  A    between atoms: _54  and  _55
REMARK   24  A    between atoms: _54  and  _57
REMARK   25  A    between atoms: _57  and  _58
REMARK   26  A    between atoms: _58  and  _59
REMARK   27  A    between atoms: _59  and  _60
REMARK   28  A    between atoms: _69  and  _71
REMARK   29  A    between atoms: _71  and  _72
REMARK   30  A    between atoms: _71  and  _74
REMARK   31  A    between atoms: _74  and  _75
REMARK   32  A    between atoms: _78  and  _80
REMARK   33  A    between atoms: _80  and  _81
REMARK   34  A    between atoms: _80  and  _83
REMARK   35  A    between atoms: _83  and  _84
REMARK   36  A    between atoms: _87  and  _89
REMARK   37  A    between atoms: _89  and  _90
REMARK   38  A    between atoms: _89  and  _92
REMARK   39  A    between atoms: _92  and  _93
REMARK   40  A    between atoms: _99  and  _101
REMARK   41  A    between atoms: _101  and  _102
REMARK   42  A    between atoms: _101  and  _104
REMARK   43  A    between atoms: _104  and  _105
REMARK   44  A    between atoms: _105  and  _106
REMARK   45  A    between atoms: _108  and  _110
REMARK   46  A    between atoms: _110  and  _111
REMARK   47  A    between atoms: _110  and  _113
REMARK   48  A    between atoms: _113  and  _114
REMARK   49  A    between atoms: _124  and  _126
REMARK   50  A    between atoms: _126  and  _127
REMARK   51  A    between atoms: _126  and  _129
REMARK   52  A    between atoms: _129  and  _130
REMARK   53  A    between atoms: _130  and  _131
REMARK   54  A    between atoms: _134  and  _136
REMARK   55  A    between atoms: _136  and  _137
REMARK   56  A    between atoms: _136  and  _139
REMARK   57  A    between atoms: _139  and  _140
REMARK   58  A    between atoms: _140  and  _141
REMARK   59  A    between atoms: _141  and  _142
REMARK   60  A    between atoms: _151  and  _153
REMARK   61  A    between atoms: _153  and  _154
REMARK   62  A    between atoms: _153  and  _156
REMARK   63  A    between atoms: _158  and  _160
REMARK   64  A    between atoms: _160  and  _161
REMARK   65  A    between atoms: _164  and  _166
REMARK   66  A    between atoms: _166  and  _167
REMARK   67  A    between atoms: _166  and  _169
REMARK   68  A    between atoms: _169  and  _170
REMARK   69  A    between atoms: _175  and  _177
REMARK   70  A    between atoms: _177  and  _178
REMARK   71  A    between atoms: _177  and  _180
REMARK   72  A    between atoms: _180  and  _181
REMARK   73  A    between atoms: _186  and  _188
REMARK   74  A    between atoms: _188  and  _189
REMARK   75  A    between atoms: _188  and  _191
REMARK   76  A    between atoms: _191  and  _192
REMARK   77  A    between atoms: _195  and  _197
REMARK   78  A    between atoms: _197  and  _198
REMARK   79  A    between atoms: _197  and  _200
REMARK   80  A    between atoms: _200  and  _201
REMARK   81  A    between atoms: _204  and  _206
REMARK   82  A    between atoms: _206  and  _207
REMARK   83  A    between atoms: _206  and  _209
REMARK   84  A    between atoms: _209  and  _210
REMARK   85  A    between atoms: _210  and  _211
REMARK   86  A    between atoms: _214  and  _216
REMARK   87  A    between atoms: _216  and  _217
REMARK   88  A    between atoms: _220  and  _222
REMARK   89  A    between atoms: _222  and  _223
REMARK   90  A    between atoms: _222  and  _225
REMARK   91  A    between atoms: _225  and  _226
REMARK   92  A    between atoms: _229  and  _231
REMARK   93  A    between atoms: _231  and  _232
REMARK   94  A    between atoms: _231  and  _234
REMARK   95  A    between atoms: _234  and  _235
REMARK   96  A    between atoms: _240  and  _241
REMARK   97  A    between atoms: _243  and  _245
REMARK   98  A    between atoms: _245  and  _246
REMARK   99  A    between atoms: _245  and  _248
REMARK  100  A    between atoms: _251  and  _253
REMARK  101  A    between atoms: _253  and  _254
REMARK  102  A    between atoms: _253  and  _256
REMARK  103  A    between atoms: _256  and  _257
REMARK  104  A    between atoms: _257  and  _258
REMARK  105  A    between atoms: _260  and  _262
REMARK  106  A    between atoms: _262  and  _263
REMARK  107  A    between atoms: _262  and  _265
REMARK  108  A    between atoms: _268  and  _270
REMARK  109  A    between atoms: _270  and  _271
REMARK  110  A    between atoms: _270  and  _273
REMARK  111  A    between atoms: _276  and  _278
REMARK  112  A    between atoms: _278  and  _279
REMARK  113  A    between atoms: _278  and  _281
REMARK  114  A    between atoms: _281  and  _282
REMARK  115  A    between atoms: _285  and  _287
REMARK  116  A    between atoms: _287  and  _288
REMARK  117  A    between atoms: _287  and  _290
REMARK  118  A    between atoms: _293  and  _295
REMARK  119  A    between atoms: _295  and  _296
REMARK  120  A    between atoms: _295  and  _298
REMARK  121  A    between atoms: _298  and  _299
REMARK  122  A    between atoms: _299  and  _300
REMARK  123  A    between atoms: _300  and  _301
REMARK  124  A    between atoms: _310  and  _312
REMARK  125  A    between atoms: _312  and  _313
REMARK  126  A    between atoms: _312  and  _315
REMARK  127  A    between atoms: _315  and  _316
REMARK  128  A    between atoms: _316  and  _317
REMARK  129  A    between atoms: _319  and  _321
REMARK  130  A    between atoms: _321  and  _322
REMARK  131  A    between atoms: _321  and  _324
REMARK  132  A    between atoms: _326  and  _328
REMARK  133  A    between atoms: _328  and  _329
REMARK  134  A    between atoms: _328  and  _331
REMARK  135  A    between atoms: _331  and  _332
REMARK  136  A    between atoms: _332  and  _333
REMARK  137  A    between atoms: _333  and  _334
REMARK  138  A    between atoms: _343  and  _345
REMARK  139  A    between atoms: _345  and  _346
REMARK  140  A    between atoms: _349  and  _351
REMARK  141  A    between atoms: _351  and  _352
REMARK  142  A    between atoms: _351  and  _354
REMARK  143  A    between atoms: _354  and  _355
REMARK  144  A    between atoms: _360  and  _361
REMARK  145  A    between atoms: _363  and  _365
REMARK  146  A    between atoms: _365  and  _366
REMARK  147  A    between atoms: _365  and  _368
REMARK  148  A    between atoms: _368  and  _369
REMARK  149  A    between atoms: _374  and  _376
REMARK  150  A    between atoms: _376  and  _377
REMARK  151  A    between atoms: _376  and  _379
REMARK  152  A    between atoms: _379  and  _380
REMARK  153  A    between atoms: _380  and  _381
REMARK  154  A    between atoms: _381  and  _382
REMARK  155  A    between atoms: _391  and  _393
REMARK  156  A    between atoms: _393  and  _394
REMARK  157  A    between atoms: _393  and  _396
REMARK  158  A    between atoms: _396  and  _397
REMARK  159  A    between atoms: _400  and  _402
REMARK  160  A    between atoms: _402  and  _403
REMARK  161  A    between atoms: _402  and  _405
REMARK  162  A    between atoms: _408  and  _410
REMARK  163  A    between atoms: _410  and  _411
REMARK  164  A    between atoms: _410  and  _413
REMARK  165  A    between atoms: _413  and  _414
REMARK  166  A    between atoms: _420  and  _422
REMARK  167  A    between atoms: _422  and  _423
REMARK  168  A    between atoms: _422  and  _425
REMARK  169  A    between atoms: _425  and  _426
REMARK  170  A    between atoms: _432  and  _434
REMARK  171  A    between atoms: _434  and  _435
REMARK  172  A    between atoms: _434  and  _437
REMARK  173  A    between atoms: _437  and  _438
REMARK  174  A    between atoms: _438  and  _439
REMARK  175  A    between atoms: _442  and  _444
REMARK  176  A    between atoms: _444  and  _445
REMARK  177  A    between atoms: _447  and  _449
REMARK  178  A    between atoms: _449  and  _450
REMARK  179  A    between atoms: _449  and  _452
REMARK  180  A    between atoms: _452  and  _453
REMARK  181  A    between atoms: _453  and  _454
REMARK  182  A    between atoms: _454  and  _455
REMARK  183  A    between atoms: _455  and  _456
REMARK  184  A    between atoms: _460  and  _462
REMARK  185  A    between atoms: _462  and  _463
REMARK  186  A    between atoms: _462  and  _465
REMARK  187  A    between atoms: _465  and  _466
REMARK  188  A    between atoms: _471  and  _472
REMARK  189  A    between atoms: _474  and  _476
REMARK  190  A    between atoms: _476  and  _477
REMARK  191  A    between atoms: _479  and  _481
REMARK  192  A    between atoms: _481  and  _482
REMARK  193  A    between atoms: _484  and  _486
REMARK  194  A    between atoms: _486  and  _487
REMARK  195  A    between atoms: _486  and  _489
REMARK  196  A    between atoms: _489  and  _490
REMARK  197  A    between atoms: _490  and  _491
REMARK  198  A    between atoms: _493  and  _495
REMARK  199  A    between atoms: _495  and  _496
REMARK  200  A    between atoms: _495  and  _498
REMARK  201  A    between atoms: _498  and  _499
REMARK  202  A    between atoms: _502  and  _504
REMARK  203  A    between atoms: _504  and  _505
REMARK  204  A    between atoms: _504  and  _507
REMARK  205  A    between atoms: _507  and  _508
REMARK  206  A    between atoms: _514  and  _516
REMARK  207  A    between atoms: _516  and  _517
REMARK  208  A    between atoms: _516  and  _519
REMARK  209  A    between atoms: _519  and  _520
REMARK  210  A    between atoms: _523  and  _525
REMARK  211  A    between atoms: _525  and  _526
REMARK  212  A    between atoms: _525  and  _528
REMARK  213  A    between atoms: _530  and  _532
REMARK  214  A    between atoms: _532  and  _533
REMARK  215  A    between atoms: _532  and  _535
REMARK  216  A    between atoms: _535  and  _536
REMARK  217  A    between atoms: _539  and  _541
REMARK  218  A    between atoms: _541  and  _542
REMARK  219  A    between atoms: _541  and  _544
REMARK  220  A    between atoms: _544  and  _545
REMARK  221  A    between atoms: _548  and  _550
REMARK  222  A    between atoms: _550  and  _551
REMARK  223  A    between atoms: _550  and  _553
REMARK  224  A    between atoms: _553  and  _554
REMARK  225  A    between atoms: _556  and  _558
REMARK  226  A    between atoms: _558  and  _559
REMARK  227  A    between atoms: _558  and  _561
REMARK  228  A    between atoms: _561  and  _562
REMARK  229  A    between atoms: _564  and  _566
REMARK  230  A    between atoms: _566  and  _567
REMARK  231  A    between atoms: _566  and  _569
REMARK  232  A    between atoms: _569  and  _570
REMARK  233  A    between atoms: _573  and  _575
REMARK  234  A    between atoms: _575  and  _576
REMARK  235  A    between atoms: _575  and  _578
REMARK  236  A    between atoms: _578  and  _579
REMARK  237  A    between atoms: _585  and  _587
REMARK  238  A    between atoms: _587  and  _588
REMARK  239  A    between atoms: _587  and  _590
REMARK  240  A    between atoms: _590  and  _591
REMARK  241  A    between atoms: _594  and  _596
REMARK  242  A    between atoms: _596  and  _597
REMARK  243  A    between atoms: _596  and  _599
REMARK  244  A    between atoms: _599  and  _600
REMARK  245  A    between atoms: _606  and  _608
REMARK  246  A    between atoms: _608  and  _609
REMARK  247  A    between atoms: _608  and  _611
REMARK  248  A    between atoms: _611  and  _612
REMARK  249  A    between atoms: _614  and  _616
REMARK  250  A    between atoms: _616  and  _617
REMARK  251  A    between atoms: _616  and  _619
REMARK  252  A    between atoms: _619  and  _620
REMARK  253  A    between atoms: _625  and  _627
REMARK  254  A    between atoms: _627  and  _628
REMARK  255  A    between atoms: _627  and  _630
REMARK  256  A    between atoms: _630  and  _631
REMARK  257  A    between atoms: _633  and  _635
REMARK  258  A    between atoms: _635  and  _636
REMARK  259  A    between atoms: _635  and  _638
REMARK  260  A    between atoms: _638  and  _639
REMARK  261  A    between atoms: _639  and  _640
REMARK  262  A    between atoms: _643  and  _645
REMARK  263  A    between atoms: _645  and  _646
REMARK  264  A    between atoms: _645  and  _648
REMARK  265  A    between atoms: _648  and  _649
REMARK  266  A    between atoms: _652  and  _654
REMARK  267  A    between atoms: _654  and  _655
REMARK  268  A    between atoms: _654  and  _657
REMARK  269  A    between atoms: _657  and  _658
REMARK  270  A    between atoms: _661  and  _663
REMARK  271  A    between atoms: _663  and  _664
REMARK  272  A    between atoms: _663  and  _666
REMARK  273  A    between atoms: _668  and  _670
REMARK  274  A    between atoms: _670  and  _671
REMARK  275  A    between atoms: _670  and  _673
REMARK  276  A    between atoms: _673  and  _674
REMARK  277  A    between atoms: _674  and  _675
REMARK  278  A    between atoms: _680  and  _682
REMARK  279  A    between atoms: _682  and  _683
REMARK  280  A    between atoms: _682  and  _685
REMARK  281  A    between atoms: _685  and  _686
REMARK  282  A    between atoms: _691  and  _693
REMARK  283  A    between atoms: _693  and  _694
REMARK  284  A    between atoms: _693  and  _696
REMARK  285  A    between atoms: _699  and  _701
REMARK  286  A    between atoms: _701  and  _702
REMARK  287  A    between atoms: _701  and  _704
REMARK  288  A    between atoms: _704  and  _705
REMARK  289  A    between atoms: _705  and  _706
REMARK  290  A    between atoms: _706  and  _707
REMARK  291  A    between atoms: _716  and  _718
REMARK  292  A    between atoms: _718  and  _719
REMARK  293  A    between atoms: _718  and  _721
REMARK  294  A    between atoms: _721  and  _722
REMARK  295  A    between atoms: _725  and  _727
REMARK  296  A    between atoms: _727  and  _728
REMARK  297  A    between atoms: _727  and  _730
REMARK  298  A    between atoms: _730  and  _731
REMARK  299  A    between atoms: _737  and  _739
REMARK  300  A    between atoms: _739  and  _740
REMARK  301  A    between atoms: _739  and  _742
REMARK  302  A    between atoms: _742  and  _743
REMARK  303  A    between atoms: _748  and  _749
REMARK  304  A    between atoms: _751  and  _753
REMARK  305  A    between atoms: _753  and  _754
REMARK  306  A    between atoms: _753  and  _756
REMARK  307  A    between atoms: _756  and  _757
REMARK                            x       y       z     vdW  Elec       q    Type
REMARK                         _______ _______ _______ _____ _____    ______ ____
ROOT
ATOM      1  CA  SER A   1       1.718  31.799  26.781  0.00  0.00    +0.163 C 
ENDROOT
BRANCH   1   2
ATOM      2  N   SER A   1       0.769  30.760  27.167  0.00  0.00    -0.237 NA
ATOM      3  H   SER A   1      -0.223  30.830  26.864  0.00  0.00    +0.142 HD
ENDBRANCH   1   2
BRANCH   1   4
ATOM      4  CB  SER A   1       2.274  32.530  27.994  0.00  0.00    +0.227 C 
ATOM      5  OG  SER A   1       3.436  32.958  27.985  0.00  0.00    -0.287 OA
ENDBRANCH   1   4
BRANCH   1   6
ATOM      6  C   SER A   1       1.063  32.776  25.805  0.00  0.00    +0.162 C 
BRANCH   6   7
ATOM      7  O   SER A   1       0.898  32.176  24.530  0.00  0.00    -0.380 OA
ATOM      8  H   SER A   1       0.323  31.375  24.616  0.00  0.00    +0.211 HD
ENDBRANCH   6   7
ENDBRANCH   1   6
TORSDOF 4
REMARK  Name = ../refined-set-2016/4ymq/4ymq_pocket.pdb
REMARK  307 active torsions:
REMARK  status: ('A' for Active; 'I' for Inactive)
REMARK    1  A    between atoms: _1  and  _3
REMARK    2  A    between atoms: _3  and  _4
REMARK    3  A    between atoms: _3  and  _6
REMARK    4  A    between atoms: _6  and  _7
REMARK    5  A    between atoms: _12  and  _13
REMARK    6  A    between atoms: _15  and  _17
REMARK    7  A    between atoms: _17  and  _18
REMARK    8  A    between atoms: _17  and  _20
REMARK    9  A    between atoms: _20  and  _21
REMARK   10  A    between atoms: _24  and  _26
REMARK   11  A    between atoms: _26  and  _27
REMARK   12  A    between atoms: _26  and  _29
REMARK   13  A    between atoms: _31  and  _33
REMARK   14  A    between atoms: _33  and  _34
REMARK   15  A    between atoms: _33  and  _36
REMARK   16  A    between atoms: _36  and  _37
REMARK   17  A    between atoms: _37  and  _38
REMARK   18  A    between atoms: _43  and  _45
REMARK   19  A    between atoms: _45  and  _46
REMARK   20  A    between atoms: _45  and  _48
REMARK   21  A    between atoms: _48  and  _49
REMARK   22  A    between atoms: _52  and  _54
REMARK   23  A    between atoms: _54  and  _55
REMARK   24  A    between atoms: _54  and  _57
REMARK   25  A    between atoms: _57  and  _58
REMARK   26  A    between atoms: _58  and  _59
REMARK   27  A    between atoms: _59  and  _60
REMARK   28  A    between atoms: _69  and  _71
REMARK   29  A    between atoms: _71  and  _72
REMARK   30  A    between atoms: _71  and  _74
REMARK   31  A    between atoms: _74  and  _75
REMARK   32  A    between atoms: _78  and  _80
REMARK   33  A    between atoms: _80  and  _81
REMARK   34  A    between atoms: _80  and  _83
REMARK   35  A    between atoms: _83  and  _84
REMARK   36  A    between atoms: _87  and  _89
REMARK   37  A    between atoms: _89  and  _90
REMARK   38  A    between atoms: _89  and  _92
REMARK   39  A    between atoms: _92  and  _93
REMARK   40  A    between atoms: _99  and  _101
REMARK   41  A    between atoms: _101  and  _102
REMARK   42  A    between atoms: _101  and  _104
REMARK   43  A    between atoms: _104  and  _105
REMARK   44  A    between atoms: _105  and  _106
REMARK   45  A    between atoms: _108  and  _110
REMARK   46  A    between atoms: _110  and  _111
REMARK   47  A    between atoms: _110  and  _113
REMARK   48  A    between atoms: _113  and  _114
REMARK   49  A    between atoms: _124  and  _126
REMARK   50  A    between atoms: _126  and  _127
REMARK   51  A    between atoms: _126  and  _129
REMARK   52  A    between atoms: _129  and  _130
REMARK   53  A    between atoms: _130  and  _131
REMARK   54  A    between atoms: _134  and  _136
REMARK   55  A    between atoms: _136  and  _137
REMARK   56  A    between atoms: _136  and  _139
REMARK   57  A    between atoms: _139  and  _140
REMARK   58  A    between atoms: _140  and  _141
REMARK   59  A    between atoms: _141  and  _142
REMARK   60  A    between atoms: _151  and  _153
REMARK   61  A    between atoms: _153  and  _154
REMARK   62  A    between atoms: _153  and  _156
REMARK   63  A    between atoms: _158  and  _160
REMARK   64  A    between atoms: _160  and  _161
REMARK   65  A    between atoms: _164  and  _166
REMARK   66  A    between atoms: _166  and  _167
REMARK   67  A    between atoms: _166  and  _169
REMARK   68  A    between atoms: _169  and  _170
REMARK   69  A    between atoms: _175  and  _177
REMARK   70  A    between atoms: _177  and  _178
REMARK   71  A    between atoms: _177  and  _180
REMARK   72  A    between atoms: _180  and  _181
REMARK   73  A    between atoms: _186  and  _188
REMARK   74  A    between atoms: _188  and  _189
REMARK   75  A    between atoms: _188  and  _191
REMARK   76  A    between atoms: _191  and  _192
REMARK   77  A    between atoms: _195  and  _197
REMARK   78  A    between atoms: _197  and  _198
REMARK   79  A    between atoms: _197  and  _200
REMARK   80  A    between atoms: _200  and  _201
REMARK   81  A    between atoms: _204  and  _206
REMARK   82  A    between atoms: _206  and  _207
REMARK   83  A    between atoms: _206  and  _209
REMARK   84  A    between atoms: _209  and  _210
REMARK   85  A    between atoms: _210  and  _211
REMARK   86  A    between atoms: _214  and  _216
REMARK   87  A    between atoms: _216  and  _217
REMARK   88  A    between atoms: _220  and  _222
REMARK   89  A    between atoms: _222  and  _223
REMARK   90  A    between atoms: _222  and  _225
REMARK   91  A    between atoms: _225  and  _226
REMARK   92  A    between atoms: _229  and  _231
REMARK   93  A    between atoms: _231  and  _232
REMARK   94  A    between atoms: _231  and  _234
REMARK   95  A    between atoms: _234  and  _235
REMARK   96  A    between atoms: _240  and  _241
REMARK   97  A    between atoms: _243  and  _245
REMARK   98  A    between atoms: _245  and  _246
REMARK   99  A    between atoms: _245  and  _248
REMARK  100  A    between atoms: _251  and  _253
REMARK  101  A    between atoms: _253  and  _254
REMARK  102  A    between atoms: _253  and  _256
REMARK  103  A    between atoms: _256  and  _257
REMARK  104  A    between atoms: _257  and  _258
REMARK  105  A    between atoms: _260  and  _262
REMARK  106  A    between atoms: _262  and  _263
REMARK  107  A    between atoms: _262  and  _265
REMARK  108  A    between atoms: _268  and  _270
REMARK  109  A    between atoms: _270  and  _271
REMARK  110  A    between atoms: _270  and  _273
REMARK  111  A    between atoms: _276  and  _278
REMARK  112  A    between atoms: _278  and  _279
REMARK  113  A    between atoms: _278  and  _281
REMARK  114  A    between atoms: _281  and  _282
REMARK  115  A    between atoms: _285  and  _287
REMARK  116  A    between atoms: _287  and  _288
REMARK  117  A    between atoms: _287  and  _290
REMARK  118  A    between atoms: _293  and  _295
REMARK  119  A    between atoms: _295  and  _296
REMARK  120  A    between atoms: _295  and  _298
REMARK  121  A    between atoms: _298  and  _299
REMARK  122  A    between atoms: _299  and  _300
REMARK  123  A    between atoms: _300  and  _301
REMARK  124  A    between atoms: _310  and  _312
REMARK  125  A    between atoms: _312  and  _313
REMARK  126  A    between atoms: _312  and  _315
REMARK  127  A    between atoms: _315  and  _316
REMARK  128  A    between atoms: _316  and  _317
REMARK  129  A    between atoms: _319  and  _321
REMARK  130  A    between atoms: _321  and  _322
REMARK  131  A    between atoms: _321  and  _324
REMARK  132  A    between atoms: _326  and  _328
REMARK  133  A    between atoms: _328  and  _329
REMARK  134  A    between atoms: _328  and  _331
REMARK  135  A    between atoms: _331  and  _332
REMARK  136  A    between atoms: _332  and  _333
REMARK  137  A    between atoms: _333  and  _334
REMARK  138  A    between atoms: _343  and  _345
REMARK  139  A    between atoms: _345  and  _346
REMARK  140  A    between atoms: _349  and  _351
REMARK  141  A    between atoms: _351  and  _352
REMARK  142  A    between atoms: _351  and  _354
REMARK  143  A    between atoms: _354  and  _355
REMARK  144  A    between atoms: _360  and  _361
REMARK  145  A    between atoms: _363  and  _365
REMARK  146  A    between atoms: _365  and  _366
REMARK  147  A    between atoms: _365  and  _368
REMARK  148  A    between atoms: _368  and  _369
REMARK  149  A    between atoms: _374  and  _376
REMARK  150  A    between atoms: _376  and  _377
REMARK  151  A    between atoms: _376  and  _379
REMARK  152  A    between atoms: _379  and  _380
REMARK  153  A    between atoms: _380  and  _381
REMARK  154  A    between atoms: _381  and  _382
REMARK  155  A    between atoms: _391  and  _393
REMARK  156  A    between atoms: _393  and  _394
REMARK  157  A    between atoms: _393  and  _396
REMARK  158  A    between atoms: _396  and  _397
REMARK  159  A    between atoms: _400  and  _402
REMARK  160  A    between atoms: _402  and  _403
REMARK  161  A    between atoms: _402  and  _405
REMARK  162  A    between atoms: _408  and  _410
REMARK  163  A    between atoms: _410  and  _411
REMARK  164  A    between atoms: _410  and  _413
REMARK  165  A    between atoms: _413  and  _414
REMARK  166  A    between atoms: _420  and  _422
REMARK  167  A    between atoms: _422  and  _423
REMARK  168  A    between atoms: _422  and  _425
REMARK  169  A    between atoms: _425  and  _426
REMARK  170  A    between atoms: _432  and  _434
REMARK  171  A    between atoms: _434  and  _435
REMARK  172  A    between atoms: _434  and  _437
REMARK  173  A    between atoms: _437  and  _438
REMARK  174  A    between atoms: _438  and  _439
REMARK  175  A    between atoms: _442  and  _444
REMARK  176  A    between atoms: _444  and  _445
REMARK  177  A    between atoms: _447  and  _449
REMARK  178  A    between atoms: _449  and  _450
REMARK  179  A    between atoms: _449  and  _452
REMARK  180  A    between atoms: _452  and  _453
REMARK  181  A    between atoms: _453  and  _454
REMARK  182  A    between atoms: _454  and  _455
REMARK  183  A    between atoms: _455  and  _456
REMARK  184  A    between atoms: _460  and  _462
REMARK  185  A    between atoms: _462  and  _463
REMARK  186  A    between atoms: _462  and  _465
REMARK  187  A    between atoms: _465  and  _466
REMARK  188  A    between atoms: _471  and  _472
REMARK  189  A    between atoms: _474  and  _476
REMARK  190  A    between atoms: _476  and  _477
REMARK  191  A    between atoms: _479  and  _481
REMARK  192  A    between atoms: _481  and  _482
REMARK  193  A    between atoms: _484  and  _486
REMARK  194  A    between atoms: _486  and  _487
REMARK  195  A    between atoms: _486  and  _489
REMARK  196  A    between atoms: _489  and  _490
REMARK  197  A    between atoms: _490  and  _491
REMARK  198  A    between atoms: _493  and  _495
REMARK  199  A    between atoms: _495  and  _496
REMARK  200  A    between atoms: _495  and  _498
REMARK  201  A    between atoms: _498  and  _499
REMARK  202  A    between atoms: _502  and  _504
REMARK  203  A    between atoms: _504  and  _505
REMARK  204  A    between atoms: _504  and  _507
REMARK  205  A    between atoms: _507  and  _508
REMARK  206  A    between atoms: _514  and  _516
REMARK  207  A    between atoms: _516  and  _517
REMARK  208  A    between atoms: _516  and  _519
REMARK  209  A    between atoms: _519  and  _520
REMARK  210  A    between atoms: _523  and  _525
REMARK  211  A    between atoms: _525  and  _526
REMARK  212  A    between atoms: _525  and  _528
REMARK  213  A    between atoms: _530  and  _532
REMARK  214  A    between atoms: _532  and  _533
REMARK  215  A    between atoms: _532  and  _535
REMARK  216  A    between atoms: _535  and  _536
REMARK  217  A    between atoms: _539  and  _541
REMARK  218  A    between atoms: _541  and  _542
REMARK  219  A    between atoms: _541  and  _544
REMARK  220  A    between atoms: _544  and  _545
REMARK  221  A    between atoms: _548  and  _550
REMARK  222  A    between atoms: _550  and  _551
REMARK  223  A    between atoms: _550  and  _553
REMARK  224  A    between atoms: _553  and  _554
REMARK  225  A    between atoms: _556  and  _558
REMARK  226  A    between atoms: _558  and  _559
REMARK  227  A    between atoms: _558  and  _561
REMARK  228  A    between atoms: _561  and  _562
REMARK  229  A    between atoms: _564  and  _566
REMARK  230  A    between atoms: _566  and  _567
REMARK  231  A    between atoms: _566  and  _569
REMARK  232  A    between atoms: _569  and  _570
REMARK  233  A    between atoms: _573  and  _575
REMARK  234  A    between atoms: _575  and  _576
REMARK  235  A    between atoms: _575  and  _578
REMARK  236  A    between atoms: _578  and  _579
REMARK  237  A    between atoms: _585  and  _587
REMARK  238  A    between atoms: _587  and  _588
REMARK  239  A    between atoms: _587  and  _590
REMARK  240  A    between atoms: _590  and  _591
REMARK  241  A    between atoms: _594  and  _596
REMARK  242  A    between atoms: _596  and  _597
REMARK  243  A    between atoms: _596  and  _599
REMARK  244  A    between atoms: _599  and  _600
REMARK  245  A    between atoms: _606  and  _608
REMARK  246  A    between atoms: _608  and  _609
REMARK  247  A    between atoms: _608  and  _611
REMARK  248  A    between atoms: _611  and  _612
REMARK  249  A    between atoms: _614  and  _616
REMARK  250  A    between atoms: _616  and  _617
REMARK  251  A    between atoms: _616  and  _619
REMARK  252  A    between atoms: _619  and  _620
REMARK  253  A    between atoms: _625  and  _627
REMARK  254  A    between atoms: _627  and  _628
REMARK  255  A    between atoms: _627  and  _630
REMARK  256  A    between atoms: _630  and  _631
REMARK  257  A    between atoms: _633  and  _635
REMARK  258  A    between atoms: _635  and  _636
REMARK  259  A    between atoms: _635  and  _638
REMARK  260  A    between atoms: _638  and  _639
REMARK  261  A    between atoms: _639  and  _640
REMARK  262  A    between atoms: _643  and  _645
REMARK  263  A    between atoms: _645  and  _646
REMARK  264  A    between atoms: _645  and  _648
REMARK  265  A    between atoms: _648  and  _649
REMARK  266  A    between atoms: _652  and  _654
REMARK  267  A    between atoms: _654  and  _655
REMARK  268  A    between atoms: _654  and  _657
REMARK  269  A    between atoms: _657  and  _658
REMARK  270  A    between atoms: _661  and  _663
REMARK  271  A    between atoms: _663  and  _664
REMARK  272  A    between atoms: _663  and  _666
REMARK  273  A    between atoms: _668  and  _670
REMARK  274  A    between atoms: _670  and  _671
REMARK  275  A    between atoms: _670  and  _673
REMARK  276  A    between atoms: _673  and  _674
REMARK  277  A    between atoms: _674  and  _675
REMARK  278  A    between atoms: _680  and  _682
REMARK  279  A    between atoms: _682  and  _683
REMARK  280  A    between atoms: _682  and  _685
REMARK  281  A    between atoms: _685  and  _686
REMARK  282  A    between atoms: _691  and  _693
REMARK  283  A    between atoms: _693  and  _694
REMARK  284  A    between atoms: _693  and  _696
REMARK  285  A    between atoms: _699  and  _701
REMARK  286  A    between atoms: _701  and  _702
REMARK  287  A    between atoms: _701  and  _704
REMARK  288  A    between atoms: _704  and  _705
REMARK  289  A    between atoms: _705  and  _706
REMARK  290  A    between atoms: _706  and  _707
REMARK  291  A    between atoms: _716  and  _718
REMARK  292  A    between atoms: _718  and  _719
REMARK  293  A    between atoms: _718  and  _721
REMARK  294  A    between atoms: _721  and  _722
REMARK  295  A    between atoms: _725  and  _727
REMARK  296  A    between atoms: _727  and  _728
REMARK  297  A    between atoms: _727  and  _730
REMARK  298  A    between atoms: _730  and  _731
REMARK  299  A    between atoms: _737  and  _739
REMARK  300  A    between atoms: _739  and  _740
REMARK  301  A    between atoms: _739  and  _742
REMARK  302  A    between atoms: _742  and  _743
REMARK  303  A    between atoms: _748  and  _749
REMARK  304  A    between atoms: _751  and  _753
REMARK  305  A    between atoms: _753  and  _754
REMARK  306  A    between atoms: _753  and  _756
REMARK  307  A    between atoms: _756  and  _757
REMARK                            x       y       z     vdW  Elec       q    Type
REMARK                         _______ _______ _______ _____ _____    ______ ____
ROOT
ATOM      1  CA  GLU A   1      10.899  24.454  23.235  0.00  0.00    +0.134 C 
ENDROOT
BRANCH   1   2
ATOM      2  N   GLU A   1      11.178  25.553  24.152  0.00  0.00    -0.239 NA
ATOM      3  H   GLU A   1      11.929  26.238  23.932  0.00  0.00    +0.142 HD
ENDBRANCH   1   2
BRANCH   1   4
ATOM      4  C   GLU A   1      11.135  23.108  23.907  0.00  0.00    +0.224 C 
ATOM      5  O   GLU A   1      10.359  22.165  23.714  0.00  0.00    -0.287 OA
ENDBRANCH   1   4
BRANCH   1   6
ATOM      6  CB  GLU A   1      11.741  24.594  21.967  0.00  0.00    +0.037 C 
BRANCH   6   7
ATOM      7  CG  GLU A   1      11.303  25.747  21.074  0.00  0.00    +0.116 C 
BRANCH   7   8
ATOM      8  CD  GLU A   1       9.942  25.513  20.454  0.00  0.00    +0.365 C 
ATOM      9  OE2 GLU A   1       8.944  26.087  20.946  0.00  0.00    -0.246 OA
ATOM     10  OE1 GLU A   1       9.867  24.743  19.477  0.00  0.00    -0.246 OA
ENDBRANCH   7   8
ENDBRANCH   6   7
ENDBRANCH   1   6
TORSDOF 5
REMARK  Name = ../refined-set-2016/4ymq/4ymq_pocket.pdb
REMARK  307 active torsions:
REMARK  status: ('A' for Active; 'I' for Inactive)
REMARK    1  A    between atoms: _1  and  _3
REMARK    2  A    between atoms: _3  and  _4
REMARK    3  A    between atoms: _3  and  _6
REMARK    4  A    between atoms: _6  and  _7
REMARK    5  A    between atoms: _12  and  _13
REMARK    6  A    between atoms: _15  and  _17
REMARK    7  A    between atoms: _17  and  _18
REMARK    8  A    between atoms: _17  and  _20
REMARK    9  A    between atoms: _20  and  _21
REMARK   10  A    between atoms: _24  and  _26
REMARK   11  A    between atoms: _26  and  _27
REMARK   12  A    between atoms: _26  and  _29
REMARK   13  A    between atoms: _31  and  _33
REMARK   14  A    between atoms: _33  and  _34
REMARK   15  A    between atoms: _33  and  _36
REMARK   16  A    between atoms: _36  and  _37
REMARK   17  A    between atoms: _37  and  _38
REMARK   18  A    between atoms: _43  and  _45
REMARK   19  A    between atoms: _45  and  _46
REMARK   20  A    between atoms: _45  and  _48
REMARK   21  A    between atoms: _48  and  _49
REMARK   22  A    between atoms: _52  and  _54
REMARK   23  A    between atoms: _54  and  _55
REMARK   24  A    between atoms: _54  and  _57
REMARK   25  A    between atoms: _57  and  _58
REMARK   26  A    between atoms: _58  and  _59
REMARK   27  A    between atoms: _59  and  _60
REMARK   28  A    between atoms: _69  and  _71
REMARK   29  A    between atoms: _71  and  _72
REMARK   30  A    between atoms: _71  and  _74
REMARK   31  A    between atoms: _74  and  _75
REMARK   32  A    between atoms: _78  and  _80
REMARK   33  A    between atoms: _80  and  _81
REMARK   34  A    between atoms: _80  and  _83
REMARK   35  A    between atoms: _83  and  _84
REMARK   36  A    between atoms: _87  and  _89
REMARK   37  A    between atoms: _89  and  _90
REMARK   38  A    between atoms: _89  and  _92
REMARK   39  A    between atoms: _92  and  _93
REMARK   40  A    between atoms: _99  and  _101
REMARK   41  A    between atoms: _101  and  _102
REMARK   42  A    between atoms: _101  and  _104
REMARK   43  A    between atoms: _104  and  _105
REMARK   44  A    between atoms: _105  and  _106
REMARK   45  A    between atoms: _108  and  _110
REMARK   46  A    between atoms: _110  and  _111
REMARK   47  A    between atoms: _110  and  _113
REMARK   48  A    between atoms: _113  and  _114
REMARK   49  A    between atoms: _124  and  _126
REMARK   50  A    between atoms: _126  and  _127
REMARK   51  A    between atoms: _126  and  _129
REMARK   52  A    between atoms: _129  and  _130
REMARK   53  A    between atoms: _130  and  _131
REMARK   54  A    between atoms: _134  and  _136
REMARK   55  A    between atoms: _136  and  _137
REMARK   56  A    between atoms: _136  and  _139
REMARK   57  A    between atoms: _139  and  _140
REMARK   58  A    between atoms: _140  and  _141
REMARK   59  A    between atoms: _141  and  _142
REMARK   60  A    between atoms: _151  and  _153
REMARK   61  A    between atoms: _153  and  _154
REMARK   62  A    between atoms: _153  and  _156
REMARK   63  A    between atoms: _158  and  _160
REMARK   64  A    between atoms: _160  and  _161
REMARK   65  A    between atoms: _164  and  _166
REMARK   66  A    between atoms: _166  and  _167
REMARK   67  A    between atoms: _166  and  _169
REMARK   68  A    between atoms: _169  and  _170
REMARK   69  A    between atoms: _175  and  _177
REMARK   70  A    between atoms: _177  and  _178
REMARK   71  A    between atoms: _177  and  _180
REMARK   72  A    between atoms: _180  and  _181
REMARK   73  A    between atoms: _186  and  _188
REMARK   74  A    between atoms: _188  and  _189
REMARK   75  A    between atoms: _188  and  _191
REMARK   76  A    between atoms: _191  and  _192
REMARK   77  A    between atoms: _195  and  _197
REMARK   78  A    between atoms: _197  and  _198
REMARK   79  A    between atoms: _197  and  _200
REMARK   80  A    between atoms: _200  and  _201
REMARK   81  A    between atoms: _204  and  _206
REMARK   82  A    between atoms: _206  and  _207
REMARK   83  A    between atoms: _206  and  _209
REMARK   84  A    between atoms: _209  and  _210
REMARK   85  A    between atoms: _210  and  _211
REMARK   86  A    between atoms: _214  and  _216
REMARK   87  A    between atoms: _216  and  _217
REMARK   88  A    between atoms: _220  and  _222
REMARK   89  A    between atoms: _222  and  _223
REMARK   90  A    between atoms: _222  and  _225
REMARK   91  A    between atoms: _225  and  _226
REMARK   92  A    between atoms: _229  and  _231
REMARK   93  A    between atoms: _231  and  _232
REMARK   94  A    between atoms: _231  and  _234
REMARK   95  A    between atoms: _234  and  _235
REMARK   96  A    between atoms: _240  and  _241
REMARK   97  A    between atoms: _243  and  _245
REMARK   98  A    between atoms: _245  and  _246
REMARK   99  A    between atoms: _245  and  _248
REMARK  100  A    between atoms: _251  and  _253
REMARK  101  A    between atoms: _253  and  _254
REMARK  102  A    between atoms: _253  and  _256
REMARK  103  A    between atoms: _256  and  _257
REMARK  104  A    between atoms: _257  and  _258
REMARK  105  A    between atoms: _260  and  _262
REMARK  106  A    between atoms: _262  and  _263
REMARK  107  A    between atoms: _262  and  _265
REMARK  108  A    between atoms: _268  and  _270
REMARK  109  A    between atoms: _270  and  _271
REMARK  110  A    between atoms: _270  and  _273
REMARK  111  A    between atoms: _276  and  _278
REMARK  112  A    between atoms: _278  and  _279
REMARK  113  A    between atoms: _278  and  _281
REMARK  114  A    between atoms: _281  and  _282
REMARK  115  A    between atoms: _285  and  _287
REMARK  116  A    between atoms: _287  and  _288
REMARK  117  A    between atoms: _287  and  _290
REMARK  118  A    between atoms: _293  and  _295
REMARK  119  A    between atoms: _295  and  _296
REMARK  120  A    between atoms: _295  and  _298
REMARK  121  A    between atoms: _298  and  _299
REMARK  122  A    between atoms: _299  and  _300
REMARK  123  A    between atoms: _300  and  _301
REMARK  124  A    between atoms: _310  and  _312
REMARK  125  A    between atoms: _312  and  _313
REMARK  126  A    between atoms: _312  and  _315
REMARK  127  A    between atoms: _315  and  _316
REMARK  128  A    between atoms: _316  and  _317
REMARK  129  A    between atoms: _319  and  _321
REMARK  130  A    between atoms: _321  and  _322
REMARK  131  A    between atoms: _321  and  _324
REMARK  132  A    between atoms: _326  and  _328
REMARK  133  A    between atoms: _328  and  _329
REMARK  134  A    between atoms: _328  and  _331
REMARK  135  A    between atoms: _331  and  _332
REMARK  136  A    between atoms: _332  and  _333
REMARK  137  A    between atoms: _333  and  _334
REMARK  138  A    between atoms: _343  and  _345
REMARK  139  A    between atoms: _345  and  _346
REMARK  140  A    between atoms: _349  and  _351
REMARK  141  A    between atoms: _351  and  _352
REMARK  142  A    between atoms: _351  and  _354
REMARK  143  A    between atoms: _354  and  _355
REMARK  144  A    between atoms: _360  and  _361
REMARK  145  A    between atoms: _363  and  _365
REMARK  146  A    between atoms: _365  and  _366
REMARK  147  A    between atoms: _365  and  _368
REMARK  148  A    between atoms: _368  and  _369
REMARK  149  A    between atoms: _374  and  _376
REMARK  150  A    between atoms: _376  and  _377
REMARK  151  A    between atoms: _376  and  _379
REMARK  152  A    between atoms: _379  and  _380
REMARK  153  A    between atoms: _380  and  _381
REMARK  154  A    between atoms: _381  and  _382
REMARK  155  A    between atoms: _391  and  _393
REMARK  156  A    between atoms: _393  and  _394
REMARK  157  A    between atoms: _393  and  _396
REMARK  158  A    between atoms: _396  and  _397
REMARK  159  A    between atoms: _400  and  _402
REMARK  160  A    between atoms: _402  and  _403
REMARK  161  A    between atoms: _402  and  _405
REMARK  162  A    between atoms: _408  and  _410
REMARK  163  A    between atoms: _410  and  _411
REMARK  164  A    between atoms: _410  and  _413
REMARK  165  A    between atoms: _413  and  _414
REMARK  166  A    between atoms: _420  and  _422
REMARK  167  A    between atoms: _422  and  _423
REMARK  168  A    between atoms: _422  and  _425
REMARK  169  A    between atoms: _425  and  _426
REMARK  170  A    between atoms: _432  and  _434
REMARK  171  A    between atoms: _434  and  _435
REMARK  172  A    between atoms: _434  and  _437
REMARK  173  A    between atoms: _437  and  _438
REMARK  174  A    between atoms: _438  and  _439
REMARK  175  A    between atoms: _442  and  _444
REMARK  176  A    between atoms: _444  and  _445
REMARK  177  A    between atoms: _447  and  _449
REMARK  178  A    between atoms: _449  and  _450
REMARK  179  A    between atoms: _449  and  _452
REMARK  180  A    between atoms: _452  and  _453
REMARK  181  A    between atoms: _453  and  _454
REMARK  182  A    between atoms: _454  and  _455
REMARK  183  A    between atoms: _455  and  _456
REMARK  184  A    between atoms: _460  and  _462
REMARK  185  A    between atoms: _462  and  _463
REMARK  186  A    between atoms: _462  and  _465
REMARK  187  A    between atoms: _465  and  _466
REMARK  188  A    between atoms: _471  and  _472
REMARK  189  A    between atoms: _474  and  _476
REMARK  190  A    between atoms: _476  and  _477
REMARK  191  A    between atoms: _479  and  _481
REMARK  192  A    between atoms: _481  and  _482
REMARK  193  A    between atoms: _484  and  _486
REMARK  194  A    between atoms: _486  and  _487
REMARK  195  A    between atoms: _486  and  _489
REMARK  196  A    between atoms: _489  and  _490
REMARK  197  A    between atoms: _490  and  _491
REMARK  198  A    between atoms: _493  and  _495
REMARK  199  A    between atoms: _495  and  _496
REMARK  200  A    between atoms: _495  and  _498
REMARK  201  A    between atoms: _498  and  _499
REMARK  202  A    between atoms: _502  and  _504
REMARK  203  A    between atoms: _504  and  _505
REMARK  204  A    between atoms: _504  and  _507
REMARK  205  A    between atoms: _507  and  _508
REMARK  206  A    between atoms: _514  and  _516
REMARK  207  A    between atoms: _516  and  _517
REMARK  208  A    between atoms: _516  and  _519
REMARK  209  A    between atoms: _519  and  _520
REMARK  210  A    between atoms: _523  and  _525
REMARK  211  A    between atoms: _525  and  _526
REMARK  212  A    between atoms: _525  and  _528
REMARK  213  A    between atoms: _530  and  _532
REMARK  214  A    between atoms: _532  and  _533
REMARK  215  A    between atoms: _532  and  _535
REMARK  216  A    between atoms: _535  and  _536
REMARK  217  A    between atoms: _539  and  _541
REMARK  218  A    between atoms: _541  and  _542
REMARK  219  A    between atoms: _541  and  _544
REMARK  220  A    between atoms: _544  and  _545
REMARK  221  A    between atoms: _548  and  _550
REMARK  222  A    between atoms: _550  and  _551
REMARK  223  A    between atoms: _550  and  _553
REMARK  224  A    between atoms: _553  and  _554
REMARK  225  A    between atoms: _556  and  _558
REMARK  226  A    between atoms: _558  and  _559
REMARK  227  A    between atoms: _558  and  _561
REMARK  228  A    between atoms: _561  and  _562
REMARK  229  A    between atoms: _564  and  _566
REMARK  230  A    between atoms: _566  and  _567
REMARK  231  A    between atoms: _566  and  _569
REMARK  232  A    between atoms: _569  and  _570
REMARK  233  A    between atoms: _573  and  _575
REMARK  234  A    between atoms: _575  and  _576
REMARK  235  A    between atoms: _575  and  _578
REMARK  236  A    between atoms: _578  and  _579
REMARK  237  A    between atoms: _585  and  _587
REMARK  238  A    between atoms: _587  and  _588
REMARK  239  A    between atoms: _587  and  _590
REMARK  240  A    between atoms: _590  and  _591
REMARK  241  A    between atoms: _594  and  _596
REMARK  242  A    between atoms: _596  and  _597
REMARK  243  A    between atoms: _596  and  _599
REMARK  244  A    between atoms: _599  and  _600
REMARK  245  A    between atoms: _606  and  _608
REMARK  246  A    between atoms: _608  and  _609
REMARK  247  A    between atoms: _608  and  _611
REMARK  248  A    between atoms: _611  and  _612
REMARK  249  A    between atoms: _614  and  _616
REMARK  250  A    between atoms: _616  and  _617
REMARK  251  A    between atoms: _616  and  _619
REMARK  252  A    between atoms: _619  and  _620
REMARK  253  A    between atoms: _625  and  _627
REMARK  254  A    between atoms: _627  and  _628
REMARK  255  A    between atoms: _627  and  _630
REMARK  256  A    between atoms: _630  and  _631
REMARK  257  A    between atoms: _633  and  _635
REMARK  258  A    between atoms: _635  and  _636
REMARK  259  A    between atoms: _635  and  _638
REMARK  260  A    between atoms: _638  and  _639
REMARK  261  A    between atoms: _639  and  _640
REMARK  262  A    between atoms: _643  and  _645
REMARK  263  A    between atoms: _645  and  _646
REMARK  264  A    between atoms: _645  and  _648
REMARK  265  A    between atoms: _648  and  _649
REMARK  266  A    between atoms: _652  and  _654
REMARK  267  A    between atoms: _654  and  _655
REMARK  268  A    between atoms: _654  and  _657
REMARK  269  A    between atoms: _657  and  _658
REMARK  270  A    between atoms: _661  and  _663
REMARK  271  A    between atoms: _663  and  _664
REMARK  272  A    between atoms: _663  and  _666
REMARK  273  A    between atoms: _668  and  _670
REMARK  274  A    between atoms: _670  and  _671
REMARK  275  A    between atoms: _670  and  _673
REMARK  276  A    between atoms: _673  and  _674
REMARK  277  A    between atoms: _674  and  _675
REMARK  278  A    between atoms: _680  and  _682
REMARK  279  A    between atoms: _682  and  _683
REMARK  280  A    between atoms: _682  and  _685
REMARK  281  A    between atoms: _685  and  _686
REMARK  282  A    between atoms: _691  and  _693
REMARK  283  A    between atoms: _693  and  _694
REMARK  284  A    between atoms: _693  and  _696
REMARK  285  A    between atoms: _699  and  _701
REMARK  286  A    between atoms: _701  and  _702
REMARK  287  A    between atoms: _701  and  _704
REMARK  288  A    between atoms: _704  and  _705
REMARK  289  A    between atoms: _705  and  _706
REMARK  290  A    between atoms: _706  and  _707
REMARK  291  A    between atoms: _716  and  _718
REMARK  292  A    between atoms: _718  and  _719
REMARK  293  A    between atoms: _718  and  _721
REMARK  294  A    between atoms: _721  and  _722
REMARK  295  A    between atoms: _725  and  _727
REMARK  296  A    between atoms: _727  and  _728
REMARK  297  A    between atoms: _727  and  _730
REMARK  298  A    between atoms: _730  and  _731
REMARK  299  A    between atoms: _737  and  _739
REMARK  300  A    between atoms: _739  and  _740
REMARK  301  A    between atoms: _739  and  _742
REMARK  302  A    between atoms: _742  and  _743
REMARK  303  A    between atoms: _748  and  _749
REMARK  304  A    between atoms: _751  and  _753
REMARK  305  A    between atoms: _753  and  _754
REMARK  306  A    between atoms: _753  and  _756
REMARK  307  A    between atoms: _756  and  _757
REMARK                            x       y       z     vdW  Elec       q    Type
REMARK                         _______ _______ _______ _____ _____    ______ ____
ROOT
ATOM      1  CA  ILE A   1       6.969  21.905  25.358  0.00  0.00    +0.133 C 
ENDROOT
BRANCH   1   2
ATOM      2  N   ILE A   1       8.102  22.382  26.149  0.00  0.00    -0.239 NA
ATOM      3  H   ILE A   1       8.665  23.189  25.813  0.00  0.00    +0.142 HD
ENDBRANCH   1   2
BRANCH   1   4
ATOM      4  C   ILE A   1       7.163  20.441  24.976  0.00  0.00    +0.224 C 
ATOM      5  O   ILE A   1       6.226  19.638  25.043  0.00  0.00    -0.287 OA
ENDBRANCH   1   4
BRANCH   1   6
ATOM      6  CB  ILE A   1       6.749  22.808  24.129  0.00  0.00    +0.023 C 
ATOM      7  CG2 ILE A   1       5.686  22.212  23.204  0.00  0.00    +0.002 C 
BRANCH   6   8
ATOM      8  CG1 ILE A   1       6.323  24.200  24.581  0.00  0.00    +0.002 C 
ATOM      9  CD1 ILE A   1       6.145  25.183  23.453  0.00  0.00    +0.000 C 
ENDBRANCH   6   8
ENDBRANCH   1   6
TORSDOF 4
REMARK  Name = ../refined-set-2016/4ymq/4ymq_pocket.pdb
REMARK  307 active torsions:
REMARK  status: ('A' for Active; 'I' for Inactive)
REMARK    1  A    between atoms: _1  and  _3
REMARK    2  A    between atoms: _3  and  _4
REMARK    3  A    between atoms: _3  and  _6
REMARK    4  A    between atoms: _6  and  _7
REMARK    5  A    between atoms: _12  and  _13
REMARK    6  A    between atoms: _15  and  _17
REMARK    7  A    between atoms: _17  and  _18
REMARK    8  A    between atoms: _17  and  _20
REMARK    9  A    between atoms: _20  and  _21
REMARK   10  A    between atoms: _24  and  _26
REMARK   11  A    between atoms: _26  and  _27
REMARK   12  A    between atoms: _26  and  _29
REMARK   13  A    between atoms: _31  and  _33
REMARK   14  A    between atoms: _33  and  _34
REMARK   15  A    between atoms: _33  and  _36
REMARK   16  A    between atoms: _36  and  _37
REMARK   17  A    between atoms: _37  and  _38
REMARK   18  A    between atoms: _43  and  _45
REMARK   19  A    between atoms: _45  and  _46
REMARK   20  A    between atoms: _45  and  _48
REMARK   21  A    between atoms: _48  and  _49
REMARK   22  A    between atoms: _52  and  _54
REMARK   23  A    between atoms: _54  and  _55
REMARK   24  A    between atoms: _54  and  _57
REMARK   25  A    between atoms: _57  and  _58
REMARK   26  A    between atoms: _58  and  _59
REMARK   27  A    between atoms: _59  and  _60
REMARK   28  A    between atoms: _69  and  _71
REMARK   29  A    between atoms: _71  and  _72
REMARK   30  A    between atoms: _71  and  _74
REMARK   31  A    between atoms: _74  and  _75
REMARK   32  A    between atoms: _78  and  _80
REMARK   33  A    between atoms: _80  and  _81
REMARK   34  A    between atoms: _80  and  _83
REMARK   35  A    between atoms: _83  and  _84
REMARK   36  A    between atoms: _87  and  _89
REMARK   37  A    between atoms: _89  and  _90
REMARK   38  A    between atoms: _89  and  _92
REMARK   39  A    between atoms: _92  and  _93
REMARK   40  A    between atoms: _99  and  _101
REMARK   41  A    between atoms: _101  and  _102
REMARK   42  A    between atoms: _101  and  _104
REMARK   43  A    between atoms: _104  and  _105
REMARK   44  A    between atoms: _105  and  _106
REMARK   45  A    between atoms: _108  and  _110
REMARK   46  A    between atoms: _110  and  _111
REMARK   47  A    between atoms: _110  and  _113
REMARK   48  A    between atoms: _113  and  _114
REMARK   49  A    between atoms: _124  and  _126
REMARK   50  A    between atoms: _126  and  _127
REMARK   51  A    between atoms: _126  and  _129
REMARK   52  A    between atoms: _129  and  _130
REMARK   53  A    between atoms: _130  and  _131
REMARK   54  A    between atoms: _134  and  _136
REMARK   55  A    between atoms: _136  and  _137
REMARK   56  A    between atoms: _136  and  _139
REMARK   57  A    between atoms: _139  and  _140
REMARK   58  A    between atoms: _140  and  _141
REMARK   59  A    between atoms: _141  and  _142
REMARK   60  A    between atoms: _151  and  _153
REMARK   61  A    between atoms: _153  and  _154
REMARK   62  A    between atoms: _153  and  _156
REMARK   63  A    between atoms: _158  and  _160
REMARK   64  A    between atoms: _160  and  _161
REMARK   65  A    between atoms: _164  and  _166
REMARK   66  A    between atoms: _166  and  _167
REMARK   67  A    between atoms: _166  and  _169
REMARK   68  A    between atoms: _169  and  _170
REMARK   69  A    between atoms: _175  and  _177
REMARK   70  A    between atoms: _177  and  _178
REMARK   71  A    between atoms: _177  and  _180
REMARK   72  A    between atoms: _180  and  _181
REMARK   73  A    between atoms: _186  and  _188
REMARK   74  A    between atoms: _188  and  _189
REMARK   75  A    between atoms: _188  and  _191
REMARK   76  A    between atoms: _191  and  _192
REMARK   77  A    between atoms: _195  and  _197
REMARK   78  A    between atoms: _197  and  _198
REMARK   79  A    between atoms: _197  and  _200
REMARK   80  A    between atoms: _200  and  _201
REMARK   81  A    between atoms: _204  and  _206
REMARK   82  A    between atoms: _206  and  _207
REMARK   83  A    between atoms: _206  and  _209
REMARK   84  A    between atoms: _209  and  _210
REMARK   85  A    between atoms: _210  and  _211
REMARK   86  A    between atoms: _214  and  _216
REMARK   87  A    between atoms: _216  and  _217
REMARK   88  A    between atoms: _220  and  _222
REMARK   89  A    between atoms: _222  and  _223
REMARK   90  A    between atoms: _222  and  _225
REMARK   91  A    between atoms: _225  and  _226
REMARK   92  A    between atoms: _229  and  _231
REMARK   93  A    between atoms: _231  and  _232
REMARK   94  A    between atoms: _231  and  _234
REMARK   95  A    between atoms: _234  and  _235
REMARK   96  A    between atoms: _240  and  _241
REMARK   97  A    between atoms: _243  and  _245
REMARK   98  A    between atoms: _245  and  _246
REMARK   99  A    between atoms: _245  and  _248
REMARK  100  A    between atoms: _251  and  _253
REMARK  101  A    between atoms: _253  and  _254
REMARK  102  A    between atoms: _253  and  _256
REMARK  103  A    between atoms: _256  and  _257
REMARK  104  A    between atoms: _257  and  _258
REMARK  105  A    between atoms: _260  and  _262
REMARK  106  A    between atoms: _262  and  _263
REMARK  107  A    between atoms: _262  and  _265
REMARK  108  A    between atoms: _268  and  _270
REMARK  109  A    between atoms: _270  and  _271
REMARK  110  A    between atoms: _270  and  _273
REMARK  111  A    between atoms: _276  and  _278
REMARK  112  A    between atoms: _278  and  _279
REMARK  113  A    between atoms: _278  and  _281
REMARK  114  A    between atoms: _281  and  _282
REMARK  115  A    between atoms: _285  and  _287
REMARK  116  A    between atoms: _287  and  _288
REMARK  117  A    between atoms: _287  and  _290
REMARK  118  A    between atoms: _293  and  _295
REMARK  119  A    between atoms: _295  and  _296
REMARK  120  A    between atoms: _295  and  _298
REMARK  121  A    between atoms: _298  and  _299
REMARK  122  A    between atoms: _299  and  _300
REMARK  123  A    between atoms: _300  and  _301
REMARK  124  A    between atoms: _310  and  _312
REMARK  125  A    between atoms: _312  and  _313
REMARK  126  A    between atoms: _312  and  _315
REMARK  127  A    between atoms: _315  and  _316
REMARK  128  A    between atoms: _316  and  _317
REMARK  129  A    between atoms: _319  and  _321
REMARK  130  A    between atoms: _321  and  _322
REMARK  131  A    between atoms: _321  and  _324
REMARK  132  A    between atoms: _326  and  _328
REMARK  133  A    between atoms: _328  and  _329
REMARK  134  A    between atoms: _328  and  _331
REMARK  135  A    between atoms: _331  and  _332
REMARK  136  A    between atoms: _332  and  _333
REMARK  137  A    between atoms: _333  and  _334
REMARK  138  A    between atoms: _343  and  _345
REMARK  139  A    between atoms: _345  and  _346
REMARK  140  A    between atoms: _349  and  _351
REMARK  141  A    between atoms: _351  and  _352
REMARK  142  A    between atoms: _351  and  _354
REMARK  143  A    between atoms: _354  and  _355
REMARK  144  A    between atoms: _360  and  _361
REMARK  145  A    between atoms: _363  and  _365
REMARK  146  A    between atoms: _365  and  _366
REMARK  147  A    between atoms: _365  and  _368
REMARK  148  A    between atoms: _368  and  _369
REMARK  149  A    between atoms: _374  and  _376
REMARK  150  A    between atoms: _376  and  _377
REMARK  151  A    between atoms: _376  and  _379
REMARK  152  A    between atoms: _379  and  _380
REMARK  153  A    between atoms: _380  and  _381
REMARK  154  A    between atoms: _381  and  _382
REMARK  155  A    between atoms: _391  and  _393
REMARK  156  A    between atoms: _393  and  _394
REMARK  157  A    between atoms: _393  and  _396
REMARK  158  A    between atoms: _396  and  _397
REMARK  159  A    between atoms: _400  and  _402
REMARK  160  A    between atoms: _402  and  _403
REMARK  161  A    between atoms: _402  and  _405
REMARK  162  A    between atoms: _408  and  _410
REMARK  163  A    between atoms: _410  and  _411
REMARK  164  A    between atoms: _410  and  _413
REMARK  165  A    between atoms: _413  and  _414
REMARK  166  A    between atoms: _420  and  _422
REMARK  167  A    between atoms: _422  and  _423
REMARK  168  A    between atoms: _422  and  _425
REMARK  169  A    between atoms: _425  and  _426
REMARK  170  A    between atoms: _432  and  _434
REMARK  171  A    between atoms: _434  and  _435
REMARK  172  A    between atoms: _434  and  _437
REMARK  173  A    between atoms: _437  and  _438
REMARK  174  A    between atoms: _438  and  _439
REMARK  175  A    between atoms: _442  and  _444
REMARK  176  A    between atoms: _444  and  _445
REMARK  177  A    between atoms: _447  and  _449
REMARK  178  A    between atoms: _449  and  _450
REMARK  179  A    between atoms: _449  and  _452
REMARK  180  A    between atoms: _452  and  _453
REMARK  181  A    between atoms: _453  and  _454
REMARK  182  A    between atoms: _454  and  _455
REMARK  183  A    between atoms: _455  and  _456
REMARK  184  A    between atoms: _460  and  _462
REMARK  185  A    between atoms: _462  and  _463
REMARK  186  A    between atoms: _462  and  _465
REMARK  187  A    between atoms: _465  and  _466
REMARK  188  A    between atoms: _471  and  _472
REMARK  189  A    between atoms: _474  and  _476
REMARK  190  A    between atoms: _476  and  _477
REMARK  191  A    between atoms: _479  and  _481
REMARK  192  A    between atoms: _481  and  _482
REMARK  193  A    between atoms: _484  and  _486
REMARK  194  A    between atoms: _486  and  _487
REMARK  195  A    between atoms: _486  and  _489
REMARK  196  A    between atoms: _489  and  _490
REMARK  197  A    between atoms: _490  and  _491
REMARK  198  A    between atoms: _493  and  _495
REMARK  199  A    between atoms: _495  and  _496
REMARK  200  A    between atoms: _495  and  _498
REMARK  201  A    between atoms: _498  and  _499
REMARK  202  A    between atoms: _502  and  _504
REMARK  203  A    between atoms: _504  and  _505
REMARK  204  A    between atoms: _504  and  _507
REMARK  205  A    between atoms: _507  and  _508
REMARK  206  A    between atoms: _514  and  _516
REMARK  207  A    between atoms: _516  and  _517
REMARK  208  A    between atoms: _516  and  _519
REMARK  209  A    between atoms: _519  and  _520
REMARK  210  A    between atoms: _523  and  _525
REMARK  211  A    between atoms: _525  and  _526
REMARK  212  A    between atoms: _525  and  _528
REMARK  213  A    between atoms: _530  and  _532
REMARK  214  A    between atoms: _532  and  _533
REMARK  215  A    between atoms: _532  and  _535
REMARK  216  A    between atoms: _535  and  _536
REMARK  217  A    between atoms: _539  and  _541
REMARK  218  A    between atoms: _541  and  _542
REMARK  219  A    between atoms: _541  and  _544
REMARK  220  A    between atoms: _544  and  _545
REMARK  221  A    between atoms: _548  and  _550
REMARK  222  A    between atoms: _550  and  _551
REMARK  223  A    between atoms: _550  and  _553
REMARK  224  A    between atoms: _553  and  _554
REMARK  225  A    between atoms: _556  and  _558
REMARK  226  A    between atoms: _558  and  _559
REMARK  227  A    between atoms: _558  and  _561
REMARK  228  A    between atoms: _561  and  _562
REMARK  229  A    between atoms: _564  and  _566
REMARK  230  A    between atoms: _566  and  _567
REMARK  231  A    between atoms: _566  and  _569
REMARK  232  A    between atoms: _569  and  _570
REMARK  233  A    between atoms: _573  and  _575
REMARK  234  A    between atoms: _575  and  _576
REMARK  235  A    between atoms: _575  and  _578
REMARK  236  A    between atoms: _578  and  _579
REMARK  237  A    between atoms: _585  and  _587
REMARK  238  A    between atoms: _587  and  _588
REMARK  239  A    between atoms: _587  and  _590
REMARK  240  A    between atoms: _590  and  _591
REMARK  241  A    between atoms: _594  and  _596
REMARK  242  A    between atoms: _596  and  _597
REMARK  243  A    between atoms: _596  and  _599
REMARK  244  A    between atoms: _599  and  _600
REMARK  245  A    between atoms: _606  and  _608
REMARK  246  A    between atoms: _608  and  _609
REMARK  247  A    between atoms: _608  and  _611
REMARK  248  A    between atoms: _611  and  _612
REMARK  249  A    between atoms: _614  and  _616
REMARK  250  A    between atoms: _616  and  _617
REMARK  251  A    between atoms: _616  and  _619
REMARK  252  A    between atoms: _619  and  _620
REMARK  253  A    between atoms: _625  and  _627
REMARK  254  A    between atoms: _627  and  _628
REMARK  255  A    between atoms: _627  and  _630
REMARK  256  A    between atoms: _630  and  _631
REMARK  257  A    between atoms: _633  and  _635
REMARK  258  A    between atoms: _635  and  _636
REMARK  259  A    between atoms: _635  and  _638
REMARK  260  A    between atoms: _638  and  _639
REMARK  261  A    between atoms: _639  and  _640
REMARK  262  A    between atoms: _643  and  _645
REMARK  263  A    between atoms: _645  and  _646
REMARK  264  A    between atoms: _645  and  _648
REMARK  265  A    between atoms: _648  and  _649
REMARK  266  A    between atoms: _652  and  _654
REMARK  267  A    between atoms: _654  and  _655
REMARK  268  A    between atoms: _654  and  _657
REMARK  269  A    between atoms: _657  and  _658
REMARK  270  A    between atoms: _661  and  _663
REMARK  271  A    between atoms: _663  and  _664
REMARK  272  A    between atoms: _663  and  _666
REMARK  273  A    between atoms: _668  and  _670
REMARK  274  A    between atoms: _670  and  _671
REMARK  275  A    between atoms: _670  and  _673
REMARK  276  A    between atoms: _673  and  _674
REMARK  277  A    between atoms: _674  and  _675
REMARK  278  A    between atoms: _680  and  _682
REMARK  279  A    between atoms: _682  and  _683
REMARK  280  A    between atoms: _682  and  _685
REMARK  281  A    between atoms: _685  and  _686
REMARK  282  A    between atoms: _691  and  _693
REMARK  283  A    between atoms: _693  and  _694
REMARK  284  A    between atoms: _693  and  _696
REMARK  285  A    between atoms: _699  and  _701
REMARK  286  A    between atoms: _701  and  _702
REMARK  287  A    between atoms: _701  and  _704
REMARK  288  A    between atoms: _704  and  _705
REMARK  289  A    between atoms: _705  and  _706
REMARK  290  A    between atoms: _706  and  _707
REMARK  291  A    between atoms: _716  and  _718
REMARK  292  A    between atoms: _718  and  _719
REMARK  293  A    between atoms: _718  and  _721
REMARK  294  A    between atoms: _721  and  _722
REMARK  295  A    between atoms: _725  and  _727
REMARK  296  A    between atoms: _727  and  _728
REMARK  297  A    between atoms: _727  and  _730
REMARK  298  A    between atoms: _730  and  _731
REMARK  299  A    between atoms: _737  and  _739
REMARK  300  A    between atoms: _739  and  _740
REMARK  301  A    between atoms: _739  and  _742
REMARK  302  A    between atoms: _742  and  _743
REMARK  303  A    between atoms: _748  and  _749
REMARK  304  A    between atoms: _751  and  _753
REMARK  305  A    between atoms: _753  and  _754
REMARK  306  A    between atoms: _753  and  _756
REMARK  307  A    between atoms: _756  and  _757
REMARK                            x       y       z     vdW  Elec       q    Type
REMARK                         _______ _______ _______ _____ _____    ______ ____
ROOT
ATOM      1  C   LEU A   1     -11.858  20.219  24.084  0.00  0.00    +0.238 C 
ATOM      2  N   CYS A   2     -11.316  19.009  24.229  0.00  0.00    -0.298 N 
ATOM      3  H   CYS A   2     -10.737  18.795  25.066  0.00  0.00    +0.150 HD
ATOM      4  O   LEU A   1     -12.530  20.519  23.091  0.00  0.00    -0.274 OA
ENDROOT
BRANCH   1   5
ATOM      5  CA  LEU A   1     -11.616  21.241  25.191  0.00  0.00    +0.145 C 
BRANCH   5   6
ATOM      6  N   LEU A   1     -11.726  20.634  26.514  0.00  0.00    -0.238 NA
ATOM      7  H   LEU A   1     -10.886  20.582  27.125  0.00  0.00    +0.142 HD
ENDBRANCH   5   6
BRANCH   5   8
ATOM      8  CB  LEU A   1     -10.241  21.891  25.028  0.00  0.00    +0.026 C 
BRANCH   8   9
ATOM      9  CG  LEU A   1      -9.902  23.080  25.927  0.00  0.00    +0.002 C 
ATOM     10  CD2 LEU A   1      -8.436  23.423  25.783  0.00  0.00    +0.000 C 
ATOM     11  CD1 LEU A   1     -10.775  24.283  25.589  0.00  0.00    +0.000 C 
ENDBRANCH   8   9
ENDBRANCH   5   8
ENDBRANCH   1   5
BRANCH   2  12
ATOM     12  CA  CYS A   2     -11.536  17.984  23.212  0.00  0.00    +0.149 C 
BRANCH  12  13
ATOM     13  CB  CYS A   2     -10.658  16.767  23.486  0.00  0.00    +0.096 C 
ATOM     14  SG  CYS A   2      -8.911  17.103  23.330  0.00  0.00    -0.080 S 
ENDBRANCH  12  13
BRANCH  12  15
ATOM     15  C   CYS A   2     -13.002  17.579  23.143  0.00  0.00    +0.228 C 
ATOM     16  O   CYS A   2     -13.530  17.319  22.054  0.00  0.00    -0.286 OA
ENDBRANCH  12  15
ENDBRANCH   2  12
TORSDOF 7
REMARK  Name = ../refined-set-2016/4ymq/4ymq_pocket.pdb
REMARK  307 active torsions:
REMARK  status: ('A' for Active; 'I' for Inactive)
REMARK    1  A    between atoms: _1  and  _3
REMARK    2  A    between atoms: _3  and  _4
REMARK    3  A    between atoms: _3  and  _6
REMARK    4  A    between atoms: _6  and  _7
REMARK    5  A    between atoms: _12  and  _13
REMARK    6  A    between atoms: _15  and  _17
REMARK    7  A    between atoms: _17  and  _18
REMARK    8  A    between atoms: _17  and  _20
REMARK    9  A    between atoms: _20  and  _21
REMARK   10  A    between atoms: _24  and  _26
REMARK   11  A    between atoms: _26  and  _27
REMARK   12  A    between atoms: _26  and  _29
REMARK   13  A    between atoms: _31  and  _33
REMARK   14  A    between atoms: _33  and  _34
REMARK   15  A    between atoms: _33  and  _36
REMARK   16  A    between atoms: _36  and  _37
REMARK   17  A    between atoms: _37  and  _38
REMARK   18  A    between atoms: _43  and  _45
REMARK   19  A    between atoms: _45  and  _46
REMARK   20  A    between atoms: _45  and  _48
REMARK   21  A    between atoms: _48  and  _49
REMARK   22  A    between atoms: _52  and  _54
REMARK   23  A    between atoms: _54  and  _55
REMARK   24  A    between atoms: _54  and  _57
REMARK   25  A    between atoms: _57  and  _58
REMARK   26  A    between atoms: _58  and  _59
REMARK   27  A    between atoms: _59  and  _60
REMARK   28  A    between atoms: _69  and  _71
REMARK   29  A    between atoms: _71  and  _72
REMARK   30  A    between atoms: _71  and  _74
REMARK   31  A    between atoms: _74  and  _75
REMARK   32  A    between atoms: _78  and  _80
REMARK   33  A    between atoms: _80  and  _81
REMARK   34  A    between atoms: _80  and  _83
REMARK   35  A    between atoms: _83  and  _84
REMARK   36  A    between atoms: _87  and  _89
REMARK   37  A    between atoms: _89  and  _90
REMARK   38  A    between atoms: _89  and  _92
REMARK   39  A    between atoms: _92  and  _93
REMARK   40  A    between atoms: _99  and  _101
REMARK   41  A    between atoms: _101  and  _102
REMARK   42  A    between atoms: _101  and  _104
REMARK   43  A    between atoms: _104  and  _105
REMARK   44  A    between atoms: _105  and  _106
REMARK   45  A    between atoms: _108  and  _110
REMARK   46  A    between atoms: _110  and  _111
REMARK   47  A    between atoms: _110  and  _113
REMARK   48  A    between atoms: _113  and  _114
REMARK   49  A    between atoms: _124  and  _126
REMARK   50  A    between atoms: _126  and  _127
REMARK   51  A    between atoms: _126  and  _129
REMARK   52  A    between atoms: _129  and  _130
REMARK   53  A    between atoms: _130  and  _131
REMARK   54  A    between atoms: _134  and  _136
REMARK   55  A    between atoms: _136  and  _137
REMARK   56  A    between atoms: _136  and  _139
REMARK   57  A    between atoms: _139  and  _140
REMARK   58  A    between atoms: _140  and  _141
REMARK   59  A    between atoms: _141  and  _142
REMARK   60  A    between atoms: _151  and  _153
REMARK   61  A    between atoms: _153  and  _154
REMARK   62  A    between atoms: _153  and  _156
REMARK   63  A    between atoms: _158  and  _160
REMARK   64  A    between atoms: _160  and  _161
REMARK   65  A    between atoms: _164  and  _166
REMARK   66  A    between atoms: _166  and  _167
REMARK   67  A    between atoms: _166  and  _169
REMARK   68  A    between atoms: _169  and  _170
REMARK   69  A    between atoms: _175  and  _177
REMARK   70  A    between atoms: _177  and  _178
REMARK   71  A    between atoms: _177  and  _180
REMARK   72  A    between atoms: _180  and  _181
REMARK   73  A    between atoms: _186  and  _188
REMARK   74  A    between atoms: _188  and  _189
REMARK   75  A    between atoms: _188  and  _191
REMARK   76  A    between atoms: _191  and  _192
REMARK   77  A    between atoms: _195  and  _197
REMARK   78  A    between atoms: _197  and  _198
REMARK   79  A    between atoms: _197  and  _200
REMARK   80  A    between atoms: _200  and  _201
REMARK   81  A    between atoms: _204  and  _206
REMARK   82  A    between atoms: _206  and  _207
REMARK   83  A    between atoms: _206  and  _209
REMARK   84  A    between atoms: _209  and  _210
REMARK   85  A    between atoms: _210  and  _211
REMARK   86  A    between atoms: _214  and  _216
REMARK   87  A    between atoms: _216  and  _217
REMARK   88  A    between atoms: _220  and  _222
REMARK   89  A    between atoms: _222  and  _223
REMARK   90  A    between atoms: _222  and  _225
REMARK   91  A    between atoms: _225  and  _226
REMARK   92  A    between atoms: _229  and  _231
REMARK   93  A    between atoms: _231  and  _232
REMARK   94  A    between atoms: _231  and  _234
REMARK   95  A    between atoms: _234  and  _235
REMARK   96  A    between atoms: _240  and  _241
REMARK   97  A    between atoms: _243  and  _245
REMARK   98  A    between atoms: _245  and  _246
REMARK   99  A    between atoms: _245  and  _248
REMARK  100  A    between atoms: _251  and  _253
REMARK  101  A    between atoms: _253  and  _254
REMARK  102  A    between atoms: _253  and  _256
REMARK  103  A    between atoms: _256  and  _257
REMARK  104  A    between atoms: _257  and  _258
REMARK  105  A    between atoms: _260  and  _262
REMARK  106  A    between atoms: _262  and  _263
REMARK  107  A    between atoms: _262  and  _265
REMARK  108  A    between atoms: _268  and  _270
REMARK  109  A    between atoms: _270  and  _271
REMARK  110  A    between atoms: _270  and  _273
REMARK  111  A    between atoms: _276  and  _278
REMARK  112  A    between atoms: _278  and  _279
REMARK  113  A    between atoms: _278  and  _281
REMARK  114  A    between atoms: _281  and  _282
REMARK  115  A    between atoms: _285  and  _287
REMARK  116  A    between atoms: _287  and  _288
REMARK  117  A    between atoms: _287  and  _290
REMARK  118  A    between atoms: _293  and  _295
REMARK  119  A    between atoms: _295  and  _296
REMARK  120  A    between atoms: _295  and  _298
REMARK  121  A    between atoms: _298  and  _299
REMARK  122  A    between atoms: _299  and  _300
REMARK  123  A    between atoms: _300  and  _301
REMARK  124  A    between atoms: _310  and  _312
REMARK  125  A    between atoms: _312  and  _313
REMARK  126  A    between atoms: _312  and  _315
REMARK  127  A    between atoms: _315  and  _316
REMARK  128  A    between atoms: _316  and  _317
REMARK  129  A    between atoms: _319  and  _321
REMARK  130  A    between atoms: _321  and  _322
REMARK  131  A    between atoms: _321  and  _324
REMARK  132  A    between atoms: _326  and  _328
REMARK  133  A    between atoms: _328  and  _329
REMARK  134  A    between atoms: _328  and  _331
REMARK  135  A    between atoms: _331  and  _332
REMARK  136  A    between atoms: _332  and  _333
REMARK  137  A    between atoms: _333  and  _334
REMARK  138  A    between atoms: _343  and  _345
REMARK  139  A    between atoms: _345  and  _346
REMARK  140  A    between atoms: _349  and  _351
REMARK  141  A    between atoms: _351  and  _352
REMARK  142  A    between atoms: _351  and  _354
REMARK  143  A    between atoms: _354  and  _355
REMARK  144  A    between atoms: _360  and  _361
REMARK  145  A    between atoms: _363  and  _365
REMARK  146  A    between atoms: _365  and  _366
REMARK  147  A    between atoms: _365  and  _368
REMARK  148  A    between atoms: _368  and  _369
REMARK  149  A    between atoms: _374  and  _376
REMARK  150  A    between atoms: _376  and  _377
REMARK  151  A    between atoms: _376  and  _379
REMARK  152  A    between atoms: _379  and  _380
REMARK  153  A    between atoms: _380  and  _381
REMARK  154  A    between atoms: _381  and  _382
REMARK  155  A    between atoms: _391  and  _393
REMARK  156  A    between atoms: _393  and  _394
REMARK  157  A    between atoms: _393  and  _396
REMARK  158  A    between atoms: _396  and  _397
REMARK  159  A    between atoms: _400  and  _402
REMARK  160  A    between atoms: _402  and  _403
REMARK  161  A    between atoms: _402  and  _405
REMARK  162  A    between atoms: _408  and  _410
REMARK  163  A    between atoms: _410  and  _411
REMARK  164  A    between atoms: _410  and  _413
REMARK  165  A    between atoms: _413  and  _414
REMARK  166  A    between atoms: _420  and  _422
REMARK  167  A    between atoms: _422  and  _423
REMARK  168  A    between atoms: _422  and  _425
REMARK  169  A    between atoms: _425  and  _426
REMARK  170  A    between atoms: _432  and  _434
REMARK  171  A    between atoms: _434  and  _435
REMARK  172  A    between atoms: _434  and  _437
REMARK  173  A    between atoms: _437  and  _438
REMARK  174  A    between atoms: _438  and  _439
REMARK  175  A    between atoms: _442  and  _444
REMARK  176  A    between atoms: _444  and  _445
REMARK  177  A    between atoms: _447  and  _449
REMARK  178  A    between atoms: _449  and  _450
REMARK  179  A    between atoms: _449  and  _452
REMARK  180  A    between atoms: _452  and  _453
REMARK  181  A    between atoms: _453  and  _454
REMARK  182  A    between atoms: _454  and  _455
REMARK  183  A    between atoms: _455  and  _456
REMARK  184  A    between atoms: _460  and  _462
REMARK  185  A    between atoms: _462  and  _463
REMARK  186  A    between atoms: _462  and  _465
REMARK  187  A    between atoms: _465  and  _466
REMARK  188  A    between atoms: _471  and  _472
REMARK  189  A    between atoms: _474  and  _476
REMARK  190  A    between atoms: _476  and  _477
REMARK  191  A    between atoms: _479  and  _481
REMARK  192  A    between atoms: _481  and  _482
REMARK  193  A    between atoms: _484  and  _486
REMARK  194  A    between atoms: _486  and  _487
REMARK  195  A    between atoms: _486  and  _489
REMARK  196  A    between atoms: _489  and  _490
REMARK  197  A    between atoms: _490  and  _491
REMARK  198  A    between atoms: _493  and  _495
REMARK  199  A    between atoms: _495  and  _496
REMARK  200  A    between atoms: _495  and  _498
REMARK  201  A    between atoms: _498  and  _499
REMARK  202  A    between atoms: _502  and  _504
REMARK  203  A    between atoms: _504  and  _505
REMARK  204  A    between atoms: _504  and  _507
REMARK  205  A    between atoms: _507  and  _508
REMARK  206  A    between atoms: _514  and  _516
REMARK  207  A    between atoms: _516  and  _517
REMARK  208  A    between atoms: _516  and  _519
REMARK  209  A    between atoms: _519  and  _520
REMARK  210  A    between atoms: _523  and  _525
REMARK  211  A    between atoms: _525  and  _526
REMARK  212  A    between atoms: _525  and  _528
REMARK  213  A    between atoms: _530  and  _532
REMARK  214  A    between atoms: _532  and  _533
REMARK  215  A    between atoms: _532  and  _535
REMARK  216  A    between atoms: _535  and  _536
REMARK  217  A    between atoms: _539  and  _541
REMARK  218  A    between atoms: _541  and  _542
REMARK  219  A    between atoms: _541  and  _544
REMARK  220  A    between atoms: _544  and  _545
REMARK  221  A    between atoms: _548  and  _550
REMARK  222  A    between atoms: _550  and  _551
REMARK  223  A    between atoms: _550  and  _553
REMARK  224  A    between atoms: _553  and  _554
REMARK  225  A    between atoms: _556  and  _558
REMARK  226  A    between atoms: _558  and  _559
REMARK  227  A    between atoms: _558  and  _561
REMARK  228  A    between atoms: _561  and  _562
REMARK  229  A    between atoms: _564  and  _566
REMARK  230  A    between atoms: _566  and  _567
REMARK  231  A    between atoms: _566  and  _569
REMARK  232  A    between atoms: _569  and  _570
REMARK  233  A    between atoms: _573  and  _575
REMARK  234  A    between atoms: _575  and  _576
REMARK  235  A    between atoms: _575  and  _578
REMARK  236  A    between atoms: _578  and  _579
REMARK  237  A    between atoms: _585  and  _587
REMARK  238  A    between atoms: _587  and  _588
REMARK  239  A    between atoms: _587  and  _590
REMARK  240  A    between atoms: _590  and  _591
REMARK  241  A    between atoms: _594  and  _596
REMARK  242  A    between atoms: _596  and  _597
REMARK  243  A    between atoms: _596  and  _599
REMARK  244  A    between atoms: _599  and  _600
REMARK  245  A    between atoms: _606  and  _608
REMARK  246  A    between atoms: _608  and  _609
REMARK  247  A    between atoms: _608  and  _611
REMARK  248  A    between atoms: _611  and  _612
REMARK  249  A    between atoms: _614  and  _616
REMARK  250  A    between atoms: _616  and  _617
REMARK  251  A    between atoms: _616  and  _619
REMARK  252  A    between atoms: _619  and  _620
REMARK  253  A    between atoms: _625  and  _627
REMARK  254  A    between atoms: _627  and  _628
REMARK  255  A    between atoms: _627  and  _630
REMARK  256  A    between atoms: _630  and  _631
REMARK  257  A    between atoms: _633  and  _635
REMARK  258  A    between atoms: _635  and  _636
REMARK  259  A    between atoms: _635  and  _638
REMARK  260  A    between atoms: _638  and  _639
REMARK  261  A    between atoms: _639  and  _640
REMARK  262  A    between atoms: _643  and  _645
REMARK  263  A    between atoms: _645  and  _646
REMARK  264  A    between atoms: _645  and  _648
REMARK  265  A    between atoms: _648  and  _649
REMARK  266  A    between atoms: _652  and  _654
REMARK  267  A    between atoms: _654  and  _655
REMARK  268  A    between atoms: _654  and  _657
REMARK  269  A    between atoms: _657  and  _658
REMARK  270  A    between atoms: _661  and  _663
REMARK  271  A    between atoms: _663  and  _664
REMARK  272  A    between atoms: _663  and  _666
REMARK  273  A    between atoms: _668  and  _670
REMARK  274  A    between atoms: _670  and  _671
REMARK  275  A    between atoms: _670  and  _673
REMARK  276  A    between atoms: _673  and  _674
REMARK  277  A    between atoms: _674  and  _675
REMARK  278  A    between atoms: _680  and  _682
REMARK  279  A    between atoms: _682  and  _683
REMARK  280  A    between atoms: _682  and  _685
REMARK  281  A    between atoms: _685  and  _686
REMARK  282  A    between atoms: _691  and  _693
REMARK  283  A    between atoms: _693  and  _694
REMARK  284  A    between atoms: _693  and  _696
REMARK  285  A    between atoms: _699  and  _701
REMARK  286  A    between atoms: _701  and  _702
REMARK  287  A    between atoms: _701  and  _704
REMARK  288  A    between atoms: _704  and  _705
REMARK  289  A    between atoms: _705  and  _706
REMARK  290  A    between atoms: _706  and  _707
REMARK  291  A    between atoms: _716  and  _718
REMARK  292  A    between atoms: _718  and  _719
REMARK  293  A    between atoms: _718  and  _721
REMARK  294  A    between atoms: _721  and  _722
REMARK  295  A    between atoms: _725  and  _727
REMARK  296  A    between atoms: _727  and  _728
REMARK  297  A    between atoms: _727  and  _730
REMARK  298  A    between atoms: _730  and  _731
REMARK  299  A    between atoms: _737  and  _739
REMARK  300  A    between atoms: _739  and  _740
REMARK  301  A    between atoms: _739  and  _742
REMARK  302  A    between atoms: _742  and  _743
REMARK  303  A    between atoms: _748  and  _749
REMARK  304  A    between atoms: _751  and  _753
REMARK  305  A    between atoms: _753  and  _754
REMARK  306  A    between atoms: _753  and  _756
REMARK  307  A    between atoms: _756  and  _757
REMARK                            x       y       z     vdW  Elec       q    Type
REMARK                         _______ _______ _______ _____ _____    ______ ____
ROOT
ATOM      1  CA  HIS A   2     -14.538  20.030  19.818  0.00  0.00    +0.155 C 
ENDROOT
BRANCH   1   3
ATOM      2  C   GLN A   1     -16.055  20.492  21.652  0.00  0.00    +0.238 C 
ATOM      3  N   HIS A   2     -14.822  20.195  21.238  0.00  0.00    -0.297 N 
ATOM      4  H   HIS A   2     -14.058  20.080  21.934  0.00  0.00    +0.150 HD
ATOM      5  O   GLN A   1     -16.991  20.673  20.865  0.00  0.00    -0.274 OA
BRANCH   2   6
ATOM      6  CA  GLN A   1     -16.260  20.621  23.152  0.00  0.00    +0.145 C 
BRANCH   6   7
ATOM      7  N   GLN A   1     -15.617  19.523  23.865  0.00  0.00    -0.238 NA
ATOM      8  H   GLN A   1     -14.926  19.735  24.613  0.00  0.00    +0.142 HD
ENDBRANCH   6   7
BRANCH   6   9
ATOM      9  CB  GLN A   1     -15.683  21.954  23.624  0.00  0.00    +0.036 C 
BRANCH   9  10
ATOM     10  CG  GLN A   1     -16.277  22.517  24.893  0.00  0.00    +0.087 C 
BRANCH  10  11
ATOM     11  CD  GLN A   1     -15.788  23.925  25.149  0.00  0.00    +0.219 C 
ATOM     12  NE2 GLN A   1     -14.809  24.058  26.033  0.00  0.00    -0.329 N 
ATOM     13 HE21 GLN A   1     -14.434  23.221  26.524  0.00  0.00    +0.145 HD
ATOM     14 HE22 GLN A   1     -14.416  24.999  26.236  0.00  0.00    +0.145 HD
ATOM     15  OE1 GLN A   1     -16.269  24.882  24.539  0.00  0.00    -0.275 OA
ENDBRANCH  10  11
ENDBRANCH   9  10
ENDBRANCH   6   9
ENDBRANCH   2   6
ENDBRANCH   1   3
BRANCH   1  16
ATOM     16  C   HIS A   2     -15.417  18.946  19.204  0.00  0.00    +0.241 C 
ATOM     17  N   VAL A   3     -15.499  17.782  19.857  0.00  0.00    -0.298 N 
ATOM     18  H   VAL A   3     -14.983  17.646  20.750  0.00  0.00    +0.150 HD
ATOM     19  O   HIS A   2     -16.035  19.155  18.151  0.00  0.00    -0.273 OA
BRANCH  17  20
ATOM     20  CA  VAL A   3     -16.317  16.704  19.310  0.00  0.00    +0.137 C 
BRANCH  20  21
ATOM     21  CB  VAL A   3     -16.040  15.387  20.059  0.00  0.00    +0.026 C 
ATOM     22  CG2 VAL A   3     -14.603  14.941  19.804  0.00  0.00    +0.002 C 
ATOM     23  CG1 VAL A   3     -17.024  14.296  19.641  0.00  0.00    +0.002 C 
ENDBRANCH  20  21
BRANCH  20  24
ATOM     24  C   VAL A   3     -17.792  17.089  19.293  0.00  0.00    +0.227 C 
ATOM     25  O   VAL A   3     -18.524  16.728  18.361  0.00  0.00    -0.286 OA
ENDBRANCH  20  24
ENDBRANCH  17  20
ENDBRANCH   1  16
BRANCH   1  26
ATOM     26  CB  HIS A   2     -13.055  19.722  19.609  0.00  0.00    +0.076 C 
BRANCH  26  27
ATOM     27  CG  HIS A   2     -12.721  19.286  18.218  0.00  0.00    +0.082 A 
ATOM     28  ND1 HIS A   2     -12.022  18.129  17.949  0.00  0.00    -0.227 NA
ATOM     29  CE1 HIS A   2     -11.881  17.995  16.642  0.00  0.00    +0.199 A 
ATOM     30  NE2 HIS A   2     -12.468  19.022  16.052  0.00  0.00    -0.221 NA
ATOM     31  CD2 HIS A   2     -13.006  19.841  17.015  0.00  0.00    +0.115 A 
ENDBRANCH  26  27
ENDBRANCH   1  26
TORSDOF 12
REMARK  Name = ../refined-set-2016/4ymq/4ymq_pocket.pdb
REMARK  307 active torsions:
REMARK  status: ('A' for Active; 'I' for Inactive)
REMARK    1  A    between atoms: _1  and  _3
REMARK    2  A    between atoms: _3  and  _4
REMARK    3  A    between atoms: _3  and  _6
REMARK    4  A    between atoms: _6  and  _7
REMARK    5  A    between atoms: _12  and  _13
REMARK    6  A    between atoms: _15  and  _17
REMARK    7  A    between atoms: _17  and  _18
REMARK    8  A    between atoms: _17  and  _20
REMARK    9  A    between atoms: _20  and  _21
REMARK   10  A    between atoms: _24  and  _26
REMARK   11  A    between atoms: _26  and  _27
REMARK   12  A    between atoms: _26  and  _29
REMARK   13  A    between atoms: _31  and  _33
REMARK   14  A    between atoms: _33  and  _34
REMARK   15  A    between atoms: _33  and  _36
REMARK   16  A    between atoms: _36  and  _37
REMARK   17  A    between atoms: _37  and  _38
REMARK   18  A    between atoms: _43  and  _45
REMARK   19  A    between atoms: _45  and  _46
REMARK   20  A    between atoms: _45  and  _48
REMARK   21  A    between atoms: _48  and  _49
REMARK   22  A    between atoms: _52  and  _54
REMARK   23  A    between atoms: _54  and  _55
REMARK   24  A    between atoms: _54  and  _57
REMARK   25  A    between atoms: _57  and  _58
REMARK   26  A    between atoms: _58  and  _59
REMARK   27  A    between atoms: _59  and  _60
REMARK   28  A    between atoms: _69  and  _71
REMARK   29  A    between atoms: _71  and  _72
REMARK   30  A    between atoms: _71  and  _74
REMARK   31  A    between atoms: _74  and  _75
REMARK   32  A    between atoms: _78  and  _80
REMARK   33  A    between atoms: _80  and  _81
REMARK   34  A    between atoms: _80  and  _83
REMARK   35  A    between atoms: _83  and  _84
REMARK   36  A    between atoms: _87  and  _89
REMARK   37  A    between atoms: _89  and  _90
REMARK   38  A    between atoms: _89  and  _92
REMARK   39  A    between atoms: _92  and  _93
REMARK   40  A    between atoms: _99  and  _101
REMARK   41  A    between atoms: _101  and  _102
REMARK   42  A    between atoms: _101  and  _104
REMARK   43  A    between atoms: _104  and  _105
REMARK   44  A    between atoms: _105  and  _106
REMARK   45  A    between atoms: _108  and  _110
REMARK   46  A    between atoms: _110  and  _111
REMARK   47  A    between atoms: _110  and  _113
REMARK   48  A    between atoms: _113  and  _114
REMARK   49  A    between atoms: _124  and  _126
REMARK   50  A    between atoms: _126  and  _127
REMARK   51  A    between atoms: _126  and  _129
REMARK   52  A    between atoms: _129  and  _130
REMARK   53  A    between atoms: _130  and  _131
REMARK   54  A    between atoms: _134  and  _136
REMARK   55  A    between atoms: _136  and  _137
REMARK   56  A    between atoms: _136  and  _139
REMARK   57  A    between atoms: _139  and  _140
REMARK   58  A    between atoms: _140  and  _141
REMARK   59  A    between atoms: _141  and  _142
REMARK   60  A    between atoms: _151  and  _153
REMARK   61  A    between atoms: _153  and  _154
REMARK   62  A    between atoms: _153  and  _156
REMARK   63  A    between atoms: _158  and  _160
REMARK   64  A    between atoms: _160  and  _161
REMARK   65  A    between atoms: _164  and  _166
REMARK   66  A    between atoms: _166  and  _167
REMARK   67  A    between atoms: _166  and  _169
REMARK   68  A    between atoms: _169  and  _170
REMARK   69  A    between atoms: _175  and  _177
REMARK   70  A    between atoms: _177  and  _178
REMARK   71  A    between atoms: _177  and  _180
REMARK   72  A    between atoms: _180  and  _181
REMARK   73  A    between atoms: _186  and  _188
REMARK   74  A    between atoms: _188  and  _189
REMARK   75  A    between atoms: _188  and  _191
REMARK   76  A    between atoms: _191  and  _192
REMARK   77  A    between atoms: _195  and  _197
REMARK   78  A    between atoms: _197  and  _198
REMARK   79  A    between atoms: _197  and  _200
REMARK   80  A    between atoms: _200  and  _201
REMARK   81  A    between atoms: _204  and  _206
REMARK   82  A    between atoms: _206  and  _207
REMARK   83  A    between atoms: _206  and  _209
REMARK   84  A    between atoms: _209  and  _210
REMARK   85  A    between atoms: _210  and  _211
REMARK   86  A    between atoms: _214  and  _216
REMARK   87  A    between atoms: _216  and  _217
REMARK   88  A    between atoms: _220  and  _222
REMARK   89  A    between atoms: _222  and  _223
REMARK   90  A    between atoms: _222  and  _225
REMARK   91  A    between atoms: _225  and  _226
REMARK   92  A    between atoms: _229  and  _231
REMARK   93  A    between atoms: _231  and  _232
REMARK   94  A    between atoms: _231  and  _234
REMARK   95  A    between atoms: _234  and  _235
REMARK   96  A    between atoms: _240  and  _241
REMARK   97  A    between atoms: _243  and  _245
REMARK   98  A    between atoms: _245  and  _246
REMARK   99  A    between atoms: _245  and  _248
REMARK  100  A    between atoms: _251  and  _253
REMARK  101  A    between atoms: _253  and  _254
REMARK  102  A    between atoms: _253  and  _256
REMARK  103  A    between atoms: _256  and  _257
REMARK  104  A    between atoms: _257  and  _258
REMARK  105  A    between atoms: _260  and  _262
REMARK  106  A    between atoms: _262  and  _263
REMARK  107  A    between atoms: _262  and  _265
REMARK  108  A    between atoms: _268  and  _270
REMARK  109  A    between atoms: _270  and  _271
REMARK  110  A    between atoms: _270  and  _273
REMARK  111  A    between atoms: _276  and  _278
REMARK  112  A    between atoms: _278  and  _279
REMARK  113  A    between atoms: _278  and  _281
REMARK  114  A    between atoms: _281  and  _282
REMARK  115  A    between atoms: _285  and  _287
REMARK  116  A    between atoms: _287  and  _288
REMARK  117  A    between atoms: _287  and  _290
REMARK  118  A    between atoms: _293  and  _295
REMARK  119  A    between atoms: _295  and  _296
REMARK  120  A    between atoms: _295  and  _298
REMARK  121  A    between atoms: _298  and  _299
REMARK  122  A    between atoms: _299  and  _300
REMARK  123  A    between atoms: _300  and  _301
REMARK  124  A    between atoms: _310  and  _312
REMARK  125  A    between atoms: _312  and  _313
REMARK  126  A    between atoms: _312  and  _315
REMARK  127  A    between atoms: _315  and  _316
REMARK  128  A    between atoms: _316  and  _317
REMARK  129  A    between atoms: _319  and  _321
REMARK  130  A    between atoms: _321  and  _322
REMARK  131  A    between atoms: _321  and  _324
REMARK  132  A    between atoms: _326  and  _328
REMARK  133  A    between atoms: _328  and  _329
REMARK  134  A    between atoms: _328  and  _331
REMARK  135  A    between atoms: _331  and  _332
REMARK  136  A    between atoms: _332  and  _333
REMARK  137  A    between atoms: _333  and  _334
REMARK  138  A    between atoms: _343  and  _345
REMARK  139  A    between atoms: _345  and  _346
REMARK  140  A    between atoms: _349  and  _351
REMARK  141  A    between atoms: _351  and  _352
REMARK  142  A    between atoms: _351  and  _354
REMARK  143  A    between atoms: _354  and  _355
REMARK  144  A    between atoms: _360  and  _361
REMARK  145  A    between atoms: _363  and  _365
REMARK  146  A    between atoms: _365  and  _366
REMARK  147  A    between atoms: _365  and  _368
REMARK  148  A    between atoms: _368  and  _369
REMARK  149  A    between atoms: _374  and  _376
REMARK  150  A    between atoms: _376  and  _377
REMARK  151  A    between atoms: _376  and  _379
REMARK  152  A    between atoms: _379  and  _380
REMARK  153  A    between atoms: _380  and  _381
REMARK  154  A    between atoms: _381  and  _382
REMARK  155  A    between atoms: _391  and  _393
REMARK  156  A    between atoms: _393  and  _394
REMARK  157  A    between atoms: _393  and  _396
REMARK  158  A    between atoms: _396  and  _397
REMARK  159  A    between atoms: _400  and  _402
REMARK  160  A    between atoms: _402  and  _403
REMARK  161  A    between atoms: _402  and  _405
REMARK  162  A    between atoms: _408  and  _410
REMARK  163  A    between atoms: _410  and  _411
REMARK  164  A    between atoms: _410  and  _413
REMARK  165  A    between atoms: _413  and  _414
REMARK  166  A    between atoms: _420  and  _422
REMARK  167  A    between atoms: _422  and  _423
REMARK  168  A    between atoms: _422  and  _425
REMARK  169  A    between atoms: _425  and  _426
REMARK  170  A    between atoms: _432  and  _434
REMARK  171  A    between atoms: _434  and  _435
REMARK  172  A    between atoms: _434  and  _437
REMARK  173  A    between atoms: _437  and  _438
REMARK  174  A    between atoms: _438  and  _439
REMARK  175  A    between atoms: _442  and  _444
REMARK  176  A    between atoms: _444  and  _445
REMARK  177  A    between atoms: _447  and  _449
REMARK  178  A    between atoms: _449  and  _450
REMARK  179  A    between atoms: _449  and  _452
REMARK  180  A    between atoms: _452  and  _453
REMARK  181  A    between atoms: _453  and  _454
REMARK  182  A    between atoms: _454  and  _455
REMARK  183  A    between atoms: _455  and  _456
REMARK  184  A    between atoms: _460  and  _462
REMARK  185  A    between atoms: _462  and  _463
REMARK  186  A    between atoms: _462  and  _465
REMARK  187  A    between atoms: _465  and  _466
REMARK  188  A    between atoms: _471  and  _472
REMARK  189  A    between atoms: _474  and  _476
REMARK  190  A    between atoms: _476  and  _477
REMARK  191  A    between atoms: _479  and  _481
REMARK  192  A    between atoms: _481  and  _482
REMARK  193  A    between atoms: _484  and  _486
REMARK  194  A    between atoms: _486  and  _487
REMARK  195  A    between atoms: _486  and  _489
REMARK  196  A    between atoms: _489  and  _490
REMARK  197  A    between atoms: _490  and  _491
REMARK  198  A    between atoms: _493  and  _495
REMARK  199  A    between atoms: _495  and  _496
REMARK  200  A    between atoms: _495  and  _498
REMARK  201  A    between atoms: _498  and  _499
REMARK  202  A    between atoms: _502  and  _504
REMARK  203  A    between atoms: _504  and  _505
REMARK  204  A    between atoms: _504  and  _507
REMARK  205  A    between atoms: _507  and  _508
REMARK  206  A    between atoms: _514  and  _516
REMARK  207  A    between atoms: _516  and  _517
REMARK  208  A    between atoms: _516  and  _519
REMARK  209  A    between atoms: _519  and  _520
REMARK  210  A    between atoms: _523  and  _525
REMARK  211  A    between atoms: _525  and  _526
REMARK  212  A    between atoms: _525  and  _528
REMARK  213  A    between atoms: _530  and  _532
REMARK  214  A    between atoms: _532  and  _533
REMARK  215  A    between atoms: _532  and  _535
REMARK  216  A    between atoms: _535  and  _536
REMARK  217  A    between atoms: _539  and  _541
REMARK  218  A    between atoms: _541  and  _542
REMARK  219  A    between atoms: _541  and  _544
REMARK  220  A    between atoms: _544  and  _545
REMARK  221  A    between atoms: _548  and  _550
REMARK  222  A    between atoms: _550  and  _551
REMARK  223  A    between atoms: _550  and  _553
REMARK  224  A    between atoms: _553  and  _554
REMARK  225  A    between atoms: _556  and  _558
REMARK  226  A    between atoms: _558  and  _559
REMARK  227  A    between atoms: _558  and  _561
REMARK  228  A    between atoms: _561  and  _562
REMARK  229  A    between atoms: _564  and  _566
REMARK  230  A    between atoms: _566  and  _567
REMARK  231  A    between atoms: _566  and  _569
REMARK  232  A    between atoms: _569  and  _570
REMARK  233  A    between atoms: _573  and  _575
REMARK  234  A    between atoms: _575  and  _576
REMARK  235  A    between atoms: _575  and  _578
REMARK  236  A    between atoms: _578  and  _579
REMARK  237  A    between atoms: _585  and  _587
REMARK  238  A    between atoms: _587  and  _588
REMARK  239  A    between atoms: _587  and  _590
REMARK  240  A    between atoms: _590  and  _591
REMARK  241  A    between atoms: _594  and  _596
REMARK  242  A    between atoms: _596  and  _597
REMARK  243  A    between atoms: _596  and  _599
REMARK  244  A    between atoms: _599  and  _600
REMARK  245  A    between atoms: _606  and  _608
REMARK  246  A    between atoms: _608  and  _609
REMARK  247  A    between atoms: _608  and  _611
REMARK  248  A    between atoms: _611  and  _612
REMARK  249  A    between atoms: _614  and  _616
REMARK  250  A    between atoms: _616  and  _617
REMARK  251  A    between atoms: _616  and  _619
REMARK  252  A    between atoms: _619  and  _620
REMARK  253  A    between atoms: _625  and  _627
REMARK  254  A    between atoms: _627  and  _628
REMARK  255  A    between atoms: _627  and  _630
REMARK  256  A    between atoms: _630  and  _631
REMARK  257  A    between atoms: _633  and  _635
REMARK  258  A    between atoms: _635  and  _636
REMARK  259  A    between atoms: _635  and  _638
REMARK  260  A    between atoms: _638  and  _639
REMARK  261  A    between atoms: _639  and  _640
REMARK  262  A    between atoms: _643  and  _645
REMARK  263  A    between atoms: _645  and  _646
REMARK  264  A    between atoms: _645  and  _648
REMARK  265  A    between atoms: _648  and  _649
REMARK  266  A    between atoms: _652  and  _654
REMARK  267  A    between atoms: _654  and  _655
REMARK  268  A    between atoms: _654  and  _657
REMARK  269  A    between atoms: _657  and  _658
REMARK  270  A    between atoms: _661  and  _663
REMARK  271  A    between atoms: _663  and  _664
REMARK  272  A    between atoms: _663  and  _666
REMARK  273  A    between atoms: _668  and  _670
REMARK  274  A    between atoms: _670  and  _671
REMARK  275  A    between atoms: _670  and  _673
REMARK  276  A    between atoms: _673  and  _674
REMARK  277  A    between atoms: _674  and  _675
REMARK  278  A    between atoms: _680  and  _682
REMARK  279  A    between atoms: _682  and  _683
REMARK  280  A    between atoms: _682  and  _685
REMARK  281  A    between atoms: _685  and  _686
REMARK  282  A    between atoms: _691  and  _693
REMARK  283  A    between atoms: _693  and  _694
REMARK  284  A    between atoms: _693  and  _696
REMARK  285  A    between atoms: _699  and  _701
REMARK  286  A    between atoms: _701  and  _702
REMARK  287  A    between atoms: _701  and  _704
REMARK  288  A    between atoms: _704  and  _705
REMARK  289  A    between atoms: _705  and  _706
REMARK  290  A    between atoms: _706  and  _707
REMARK  291  A    between atoms: _716  and  _718
REMARK  292  A    between atoms: _718  and  _719
REMARK  293  A    between atoms: _718  and  _721
REMARK  294  A    between atoms: _721  and  _722
REMARK  295  A    between atoms: _725  and  _727
REMARK  296  A    between atoms: _727  and  _728
REMARK  297  A    between atoms: _727  and  _730
REMARK  298  A    between atoms: _730  and  _731
REMARK  299  A    between atoms: _737  and  _739
REMARK  300  A    between atoms: _739  and  _740
REMARK  301  A    between atoms: _739  and  _742
REMARK  302  A    between atoms: _742  and  _743
REMARK  303  A    between atoms: _748  and  _749
REMARK  304  A    between atoms: _751  and  _753
REMARK  305  A    between atoms: _753  and  _754
REMARK  306  A    between atoms: _753  and  _756
REMARK  307  A    between atoms: _756  and  _757
REMARK                            x       y       z     vdW  Elec       q    Type
REMARK                         _______ _______ _______ _____ _____    ______ ____
ROOT
ATOM      1  CA  ARG A   1     -19.387  21.137  17.852  0.00  0.00    +0.145 C 
ENDROOT
BRANCH   1   2
ATOM      2  C   ARG A   1     -19.301  20.453  16.495  0.00  0.00    +0.238 C 
ATOM      3  N   LEU A   2     -18.412  19.466  16.354  0.00  0.00    -0.298 N 
ATOM      4  H   LEU A   2     -17.770  19.233  17.138  0.00  0.00    +0.150 HD
ATOM      5  O   ARG A   1     -20.049  20.806  15.577  0.00  0.00    -0.274 OA
BRANCH   3   6
ATOM      6  CA  LEU A   2     -18.336  18.713  15.107  0.00  0.00    +0.137 C 
BRANCH   6   7
ATOM      7  C   LEU A   2     -19.647  17.993  14.817  0.00  0.00    +0.227 C 
ATOM      8  O   LEU A   2     -20.156  18.040  13.690  0.00  0.00    -0.286 OA
ENDBRANCH   6   7
BRANCH   6   9
ATOM      9  CB  LEU A   2     -17.173  17.721  15.145  0.00  0.00    +0.028 C 
BRANCH   9  10
ATOM     10  CG  LEU A   2     -17.200  16.720  13.983  0.00  0.00    +0.002 C 
ATOM     11  CD2 LEU A   2     -16.116  15.671  14.143  0.00  0.00    +0.000 C 
ATOM     12  CD1 LEU A   2     -17.072  17.438  12.637  0.00  0.00    +0.000 C 
ENDBRANCH   9  10
ENDBRANCH   6   9
ENDBRANCH   3   6
ENDBRANCH   1   2
BRANCH   1  13
ATOM     13  N   ARG A   1     -19.126  20.201  18.942  0.00  0.00    -0.238 NA
ATOM     14  H   ARG A   1     -18.272  20.305  19.527  0.00  0.00    +0.142 HD
ENDBRANCH   1  13
BRANCH   1  15
ATOM     15  CB  ARG A   1     -18.444  22.336  17.935  0.00  0.00    +0.030 C 
BRANCH  15  16
ATOM     16  CG  ARG A   1     -18.518  23.082  19.265  0.00  0.00    +0.045 C 
BRANCH  16  17
ATOM     17  CD  ARG A   1     -19.956  23.428  19.652  0.00  0.00    +0.174 C 
BRANCH  17  18
ATOM     18  NE  ARG A   1     -20.586  24.362  18.721  0.00  0.00    -0.265 N 
ATOM     19  CZ  ARG A   1     -21.669  25.085  19.001  0.00  0.00    +0.342 C 
ATOM     20  NH2 ARG A   1     -22.246  24.994  20.195  0.00  0.00    -0.292 N 
ATOM     21 HH21 ARG A   1     -21.852  24.356  20.916  0.00  0.00    +0.255 HD
ATOM     22 HH22 ARG A   1     -23.091  25.561  20.409  0.00  0.00    +0.255 HD
ATOM     23  NH1 ARG A   1     -22.172  25.912  18.093  0.00  0.00    -0.292 N 
ATOM     24 HH11 ARG A   1     -23.018  26.475  18.314  0.00  0.00    +0.255 HD
ATOM     25 HH12 ARG A   1     -21.720  25.997  17.160  0.00  0.00    +0.255 HD
ATOM     26  HE  ARG A   1     -20.161  24.469  17.778  0.00  0.00    +0.259 HD
ENDBRANCH  17  18
ENDBRANCH  16  17
ENDBRANCH  15  16
ENDBRANCH   1  15
TORSDOF 10
REMARK  Name = ../refined-set-2016/4ymq/4ymq_pocket.pdb
REMARK  307 active torsions:
REMARK  status: ('A' for Active; 'I' for Inactive)
REMARK    1  A    between atoms: _1  and  _3
REMARK    2  A    between atoms: _3  and  _4
REMARK    3  A    between atoms: _3  and  _6
REMARK    4  A    between atoms: _6  and  _7
REMARK    5  A    between atoms: _12  and  _13
REMARK    6  A    between atoms: _15  and  _17
REMARK    7  A    between atoms: _17  and  _18
REMARK    8  A    between atoms: _17  and  _20
REMARK    9  A    between atoms: _20  and  _21
REMARK   10  A    between atoms: _24  and  _26
REMARK   11  A    between atoms: _26  and  _27
REMARK   12  A    between atoms: _26  and  _29
REMARK   13  A    between atoms: _31  and  _33
REMARK   14  A    between atoms: _33  and  _34
REMARK   15  A    between atoms: _33  and  _36
REMARK   16  A    between atoms: _36  and  _37
REMARK   17  A    between atoms: _37  and  _38
REMARK   18  A    between atoms: _43  and  _45
REMARK   19  A    between atoms: _45  and  _46
REMARK   20  A    between atoms: _45  and  _48
REMARK   21  A    between atoms: _48  and  _49
REMARK   22  A    between atoms: _52  and  _54
REMARK   23  A    between atoms: _54  and  _55
REMARK   24  A    between atoms: _54  and  _57
REMARK   25  A    between atoms: _57  and  _58
REMARK   26  A    between atoms: _58  and  _59
REMARK   27  A    between atoms: _59  and  _60
REMARK   28  A    between atoms: _69  and  _71
REMARK   29  A    between atoms: _71  and  _72
REMARK   30  A    between atoms: _71  and  _74
REMARK   31  A    between atoms: _74  and  _75
REMARK   32  A    between atoms: _78  and  _80
REMARK   33  A    between atoms: _80  and  _81
REMARK   34  A    between atoms: _80  and  _83
REMARK   35  A    between atoms: _83  and  _84
REMARK   36  A    between atoms: _87  and  _89
REMARK   37  A    between atoms: _89  and  _90
REMARK   38  A    between atoms: _89  and  _92
REMARK   39  A    between atoms: _92  and  _93
REMARK   40  A    between atoms: _99  and  _101
REMARK   41  A    between atoms: _101  and  _102
REMARK   42  A    between atoms: _101  and  _104
REMARK   43  A    between atoms: _104  and  _105
REMARK   44  A    between atoms: _105  and  _106
REMARK   45  A    between atoms: _108  and  _110
REMARK   46  A    between atoms: _110  and  _111
REMARK   47  A    between atoms: _110  and  _113
REMARK   48  A    between atoms: _113  and  _114
REMARK   49  A    between atoms: _124  and  _126
REMARK   50  A    between atoms: _126  and  _127
REMARK   51  A    between atoms: _126  and  _129
REMARK   52  A    between atoms: _129  and  _130
REMARK   53  A    between atoms: _130  and  _131
REMARK   54  A    between atoms: _134  and  _136
REMARK   55  A    between atoms: _136  and  _137
REMARK   56  A    between atoms: _136  and  _139
REMARK   57  A    between atoms: _139  and  _140
REMARK   58  A    between atoms: _140  and  _141
REMARK   59  A    between atoms: _141  and  _142
REMARK   60  A    between atoms: _151  and  _153
REMARK   61  A    between atoms: _153  and  _154
REMARK   62  A    between atoms: _153  and  _156
REMARK   63  A    between atoms: _158  and  _160
REMARK   64  A    between atoms: _160  and  _161
REMARK   65  A    between atoms: _164  and  _166
REMARK   66  A    between atoms: _166  and  _167
REMARK   67  A    between atoms: _166  and  _169
REMARK   68  A    between atoms: _169  and  _170
REMARK   69  A    between atoms: _175  and  _177
REMARK   70  A    between atoms: _177  and  _178
REMARK   71  A    between atoms: _177  and  _180
REMARK   72  A    between atoms: _180  and  _181
REMARK   73  A    between atoms: _186  and  _188
REMARK   74  A    between atoms: _188  and  _189
REMARK   75  A    between atoms: _188  and  _191
REMARK   76  A    between atoms: _191  and  _192
REMARK   77  A    between atoms: _195  and  _197
REMARK   78  A    between atoms: _197  and  _198
REMARK   79  A    between atoms: _197  and  _200
REMARK   80  A    between atoms: _200  and  _201
REMARK   81  A    between atoms: _204  and  _206
REMARK   82  A    between atoms: _206  and  _207
REMARK   83  A    between atoms: _206  and  _209
REMARK   84  A    between atoms: _209  and  _210
REMARK   85  A    between atoms: _210  and  _211
REMARK   86  A    between atoms: _214  and  _216
REMARK   87  A    between atoms: _216  and  _217
REMARK   88  A    between atoms: _220  and  _222
REMARK   89  A    between atoms: _222  and  _223
REMARK   90  A    between atoms: _222  and  _225
REMARK   91  A    between atoms: _225  and  _226
REMARK   92  A    between atoms: _229  and  _231
REMARK   93  A    between atoms: _231  and  _232
REMARK   94  A    between atoms: _231  and  _234
REMARK   95  A    between atoms: _234  and  _235
REMARK   96  A    between atoms: _240  and  _241
REMARK   97  A    between atoms: _243  and  _245
REMARK   98  A    between atoms: _245  and  _246
REMARK   99  A    between atoms: _245  and  _248
REMARK  100  A    between atoms: _251  and  _253
REMARK  101  A    between atoms: _253  and  _254
REMARK  102  A    between atoms: _253  and  _256
REMARK  103  A    between atoms: _256  and  _257
REMARK  104  A    between atoms: _257  and  _258
REMARK  105  A    between atoms: _260  and  _262
REMARK  106  A    between atoms: _262  and  _263
REMARK  107  A    between atoms: _262  and  _265
REMARK  108  A    between atoms: _268  and  _270
REMARK  109  A    between atoms: _270  and  _271
REMARK  110  A    between atoms: _270  and  _273
REMARK  111  A    between atoms: _276  and  _278
REMARK  112  A    between atoms: _278  and  _279
REMARK  113  A    between atoms: _278  and  _281
REMARK  114  A    between atoms: _281  and  _282
REMARK  115  A    between atoms: _285  and  _287
REMARK  116  A    between atoms: _287  and  _288
REMARK  117  A    between atoms: _287  and  _290
REMARK  118  A    between atoms: _293  and  _295
REMARK  119  A    between atoms: _295  and  _296
REMARK  120  A    between atoms: _295  and  _298
REMARK  121  A    between atoms: _298  and  _299
REMARK  122  A    between atoms: _299  and  _300
REMARK  123  A    between atoms: _300  and  _301
REMARK  124  A    between atoms: _310  and  _312
REMARK  125  A    between atoms: _312  and  _313
REMARK  126  A    between atoms: _312  and  _315
REMARK  127  A    between atoms: _315  and  _316
REMARK  128  A    between atoms: _316  and  _317
REMARK  129  A    between atoms: _319  and  _321
REMARK  130  A    between atoms: _321  and  _322
REMARK  131  A    between atoms: _321  and  _324
REMARK  132  A    between atoms: _326  and  _328
REMARK  133  A    between atoms: _328  and  _329
REMARK  134  A    between atoms: _328  and  _331
REMARK  135  A    between atoms: _331  and  _332
REMARK  136  A    between atoms: _332  and  _333
REMARK  137  A    between atoms: _333  and  _334
REMARK  138  A    between atoms: _343  and  _345
REMARK  139  A    between atoms: _345  and  _346
REMARK  140  A    between atoms: _349  and  _351
REMARK  141  A    between atoms: _351  and  _352
REMARK  142  A    between atoms: _351  and  _354
REMARK  143  A    between atoms: _354  and  _355
REMARK  144  A    between atoms: _360  and  _361
REMARK  145  A    between atoms: _363  and  _365
REMARK  146  A    between atoms: _365  and  _366
REMARK  147  A    between atoms: _365  and  _368
REMARK  148  A    between atoms: _368  and  _369
REMARK  149  A    between atoms: _374  and  _376
REMARK  150  A    between atoms: _376  and  _377
REMARK  151  A    between atoms: _376  and  _379
REMARK  152  A    between atoms: _379  and  _380
REMARK  153  A    between atoms: _380  and  _381
REMARK  154  A    between atoms: _381  and  _382
REMARK  155  A    between atoms: _391  and  _393
REMARK  156  A    between atoms: _393  and  _394
REMARK  157  A    between atoms: _393  and  _396
REMARK  158  A    between atoms: _396  and  _397
REMARK  159  A    between atoms: _400  and  _402
REMARK  160  A    between atoms: _402  and  _403
REMARK  161  A    between atoms: _402  and  _405
REMARK  162  A    between atoms: _408  and  _410
REMARK  163  A    between atoms: _410  and  _411
REMARK  164  A    between atoms: _410  and  _413
REMARK  165  A    between atoms: _413  and  _414
REMARK  166  A    between atoms: _420  and  _422
REMARK  167  A    between atoms: _422  and  _423
REMARK  168  A    between atoms: _422  and  _425
REMARK  169  A    between atoms: _425  and  _426
REMARK  170  A    between atoms: _432  and  _434
REMARK  171  A    between atoms: _434  and  _435
REMARK  172  A    between atoms: _434  and  _437
REMARK  173  A    between atoms: _437  and  _438
REMARK  174  A    between atoms: _438  and  _439
REMARK  175  A    between atoms: _442  and  _444
REMARK  176  A    between atoms: _444  and  _445
REMARK  177  A    between atoms: _447  and  _449
REMARK  178  A    between atoms: _449  and  _450
REMARK  179  A    between atoms: _449  and  _452
REMARK  180  A    between atoms: _452  and  _453
REMARK  181  A    between atoms: _453  and  _454
REMARK  182  A    between atoms: _454  and  _455
REMARK  183  A    between atoms: _455  and  _456
REMARK  184  A    between atoms: _460  and  _462
REMARK  185  A    between atoms: _462  and  _463
REMARK  186  A    between atoms: _462  and  _465
REMARK  187  A    between atoms: _465  and  _466
REMARK  188  A    between atoms: _471  and  _472
REMARK  189  A    between atoms: _474  and  _476
REMARK  190  A    between atoms: _476  and  _477
REMARK  191  A    between atoms: _479  and  _481
REMARK  192  A    between atoms: _481  and  _482
REMARK  193  A    between atoms: _484  and  _486
REMARK  194  A    between atoms: _486  and  _487
REMARK  195  A    between atoms: _486  and  _489
REMARK  196  A    between atoms: _489  and  _490
REMARK  197  A    between atoms: _490  and  _491
REMARK  198  A    between atoms: _493  and  _495
REMARK  199  A    between atoms: _495  and  _496
REMARK  200  A    between atoms: _495  and  _498
REMARK  201  A    between atoms: _498  and  _499
REMARK  202  A    between atoms: _502  and  _504
REMARK  203  A    between atoms: _504  and  _505
REMARK  204  A    between atoms: _504  and  _507
REMARK  205  A    between atoms: _507  and  _508
REMARK  206  A    between atoms: _514  and  _516
REMARK  207  A    between atoms: _516  and  _517
REMARK  208  A    between atoms: _516  and  _519
REMARK  209  A    between atoms: _519  and  _520
REMARK  210  A    between atoms: _523  and  _525
REMARK  211  A    between atoms: _525  and  _526
REMARK  212  A    between atoms: _525  and  _528
REMARK  213  A    between atoms: _530  and  _532
REMARK  214  A    between atoms: _532  and  _533
REMARK  215  A    between atoms: _532  and  _535
REMARK  216  A    between atoms: _535  and  _536
REMARK  217  A    between atoms: _539  and  _541
REMARK  218  A    between atoms: _541  and  _542
REMARK  219  A    between atoms: _541  and  _544
REMARK  220  A    between atoms: _544  and  _545
REMARK  221  A    between atoms: _548  and  _550
REMARK  222  A    between atoms: _550  and  _551
REMARK  223  A    between atoms: _550  and  _553
REMARK  224  A    between atoms: _553  and  _554
REMARK  225  A    between atoms: _556  and  _558
REMARK  226  A    between atoms: _558  and  _559
REMARK  227  A    between atoms: _558  and  _561
REMARK  228  A    between atoms: _561  and  _562
REMARK  229  A    between atoms: _564  and  _566
REMARK  230  A    between atoms: _566  and  _567
REMARK  231  A    between atoms: _566  and  _569
REMARK  232  A    between atoms: _569  and  _570
REMARK  233  A    between atoms: _573  and  _575
REMARK  234  A    between atoms: _575  and  _576
REMARK  235  A    between atoms: _575  and  _578
REMARK  236  A    between atoms: _578  and  _579
REMARK  237  A    between atoms: _585  and  _587
REMARK  238  A    between atoms: _587  and  _588
REMARK  239  A    between atoms: _587  and  _590
REMARK  240  A    between atoms: _590  and  _591
REMARK  241  A    between atoms: _594  and  _596
REMARK  242  A    between atoms: _596  and  _597
REMARK  243  A    between atoms: _596  and  _599
REMARK  244  A    between atoms: _599  and  _600
REMARK  245  A    between atoms: _606  and  _608
REMARK  246  A    between atoms: _608  and  _609
REMARK  247  A    between atoms: _608  and  _611
REMARK  248  A    between atoms: _611  and  _612
REMARK  249  A    between atoms: _614  and  _616
REMARK  250  A    between atoms: _616  and  _617
REMARK  251  A    between atoms: _616  and  _619
REMARK  252  A    between atoms: _619  and  _620
REMARK  253  A    between atoms: _625  and  _627
REMARK  254  A    between atoms: _627  and  _628
REMARK  255  A    between atoms: _627  and  _630
REMARK  256  A    between atoms: _630  and  _631
REMARK  257  A    between atoms: _633  and  _635
REMARK  258  A    between atoms: _635  and  _636
REMARK  259  A    between atoms: _635  and  _638
REMARK  260  A    between atoms: _638  and  _639
REMARK  261  A    between atoms: _639  and  _640
REMARK  262  A    between atoms: _643  and  _645
REMARK  263  A    between atoms: _645  and  _646
REMARK  264  A    between atoms: _645  and  _648
REMARK  265  A    between atoms: _648  and  _649
REMARK  266  A    between atoms: _652  and  _654
REMARK  267  A    between atoms: _654  and  _655
REMARK  268  A    between atoms: _654  and  _657
REMARK  269  A    between atoms: _657  and  _658
REMARK  270  A    between atoms: _661  and  _663
REMARK  271  A    between atoms: _663  and  _664
REMARK  272  A    between atoms: _663  and  _666
REMARK  273  A    between atoms: _668  and  _670
REMARK  274  A    between atoms: _670  and  _671
REMARK  275  A    between atoms: _670  and  _673
REMARK  276  A    between atoms: _673  and  _674
REMARK  277  A    between atoms: _674  and  _675
REMARK  278  A    between atoms: _680  and  _682
REMARK  279  A    between atoms: _682  and  _683
REMARK  280  A    between atoms: _682  and  _685
REMARK  281  A    between atoms: _685  and  _686
REMARK  282  A    between atoms: _691  and  _693
REMARK  283  A    between atoms: _693  and  _694
REMARK  284  A    between atoms: _693  and  _696
REMARK  285  A    between atoms: _699  and  _701
REMARK  286  A    between atoms: _701  and  _702
REMARK  287  A    between atoms: _701  and  _704
REMARK  288  A    between atoms: _704  and  _705
REMARK  289  A    between atoms: _705  and  _706
REMARK  290  A    between atoms: _706  and  _707
REMARK  291  A    between atoms: _716  and  _718
REMARK  292  A    between atoms: _718  and  _719
REMARK  293  A    between atoms: _718  and  _721
REMARK  294  A    between atoms: _721  and  _722
REMARK  295  A    between atoms: _725  and  _727
REMARK  296  A    between atoms: _727  and  _728
REMARK  297  A    between atoms: _727  and  _730
REMARK  298  A    between atoms: _730  and  _731
REMARK  299  A    between atoms: _737  and  _739
REMARK  300  A    between atoms: _739  and  _740
REMARK  301  A    between atoms: _739  and  _742
REMARK  302  A    between atoms: _742  and  _743
REMARK  303  A    between atoms: _748  and  _749
REMARK  304  A    between atoms: _751  and  _753
REMARK  305  A    between atoms: _753  and  _754
REMARK  306  A    between atoms: _753  and  _756
REMARK  307  A    between atoms: _756  and  _757
REMARK                            x       y       z     vdW  Elec       q    Type
REMARK                         _______ _______ _______ _____ _____    ______ ____
ROOT
ATOM      1  CB  PHE A   1     -14.179  15.789   6.627  0.00  0.00    +0.051 C 
ENDROOT
BRANCH   1   2
ATOM      2  CG  PHE A   1     -14.736  17.039   7.258  0.00  0.00    -0.020 A 
ATOM      3  CD2 PHE A   1     -14.816  17.159   8.634  0.00  0.00    -0.004 A 
ATOM      4  CE2 PHE A   1     -15.331  18.302   9.220  0.00  0.00    -0.000 A 
ATOM      5  CZ  PHE A   1     -15.773  19.341   8.424  0.00  0.00    -0.000 A 
ATOM      6  CE1 PHE A   1     -15.705  19.231   7.055  0.00  0.00    -0.000 A 
ATOM      7  CD1 PHE A   1     -15.191  18.085   6.476  0.00  0.00    -0.004 A 
ENDBRANCH   1   2
BRANCH   1   8
ATOM      8  CA  PHE A   1     -13.331  16.045   5.382  0.00  0.00    +0.137 C 
BRANCH   8   9
ATOM      9  N   PHE A   1     -14.170  16.032   4.191  0.00  0.00    -0.239 NA
ATOM     10  H   PHE A   1     -14.991  15.397   4.130  0.00  0.00    +0.142 HD
ENDBRANCH   8   9
BRANCH   8  11
ATOM     11  C   PHE A   1     -12.258  14.963   5.278  0.00  0.00    +0.224 C 
ATOM     12  O   PHE A   1     -12.494  13.906   4.689  0.00  0.00    -0.287 OA
ENDBRANCH   8  11
ENDBRANCH   1   8
TORSDOF 4
REMARK  Name = ../refined-set-2016/4ymq/4ymq_pocket.pdb
REMARK  307 active torsions:
REMARK  status: ('A' for Active; 'I' for Inactive)
REMARK    1  A    between atoms: _1  and  _3
REMARK    2  A    between atoms: _3  and  _4
REMARK    3  A    between atoms: _3  and  _6
REMARK    4  A    between atoms: _6  and  _7
REMARK    5  A    between atoms: _12  and  _13
REMARK    6  A    between atoms: _15  and  _17
REMARK    7  A    between atoms: _17  and  _18
REMARK    8  A    between atoms: _17  and  _20
REMARK    9  A    between atoms: _20  and  _21
REMARK   10  A    between atoms: _24  and  _26
REMARK   11  A    between atoms: _26  and  _27
REMARK   12  A    between atoms: _26  and  _29
REMARK   13  A    between atoms: _31  and  _33
REMARK   14  A    between atoms: _33  and  _34
REMARK   15  A    between atoms: _33  and  _36
REMARK   16  A    between atoms: _36  and  _37
REMARK   17  A    between atoms: _37  and  _38
REMARK   18  A    between atoms: _43  and  _45
REMARK   19  A    between atoms: _45  and  _46
REMARK   20  A    between atoms: _45  and  _48
REMARK   21  A    between atoms: _48  and  _49
REMARK   22  A    between atoms: _52  and  _54
REMARK   23  A    between atoms: _54  and  _55
REMARK   24  A    between atoms: _54  and  _57
REMARK   25  A    between atoms: _57  and  _58
REMARK   26  A    between atoms: _58  and  _59
REMARK   27  A    between atoms: _59  and  _60
REMARK   28  A    between atoms: _69  and  _71
REMARK   29  A    between atoms: _71  and  _72
REMARK   30  A    between atoms: _71  and  _74
REMARK   31  A    between atoms: _74  and  _75
REMARK   32  A    between atoms: _78  and  _80
REMARK   33  A    between atoms: _80  and  _81
REMARK   34  A    between atoms: _80  and  _83
REMARK   35  A    between atoms: _83  and  _84
REMARK   36  A    between atoms: _87  and  _89
REMARK   37  A    between atoms: _89  and  _90
REMARK   38  A    between atoms: _89  and  _92
REMARK   39  A    between atoms: _92  and  _93
REMARK   40  A    between atoms: _99  and  _101
REMARK   41  A    between atoms: _101  and  _102
REMARK   42  A    between atoms: _101  and  _104
REMARK   43  A    between atoms: _104  and  _105
REMARK   44  A    between atoms: _105  and  _106
REMARK   45  A    between atoms: _108  and  _110
REMARK   46  A    between atoms: _110  and  _111
REMARK   47  A    between atoms: _110  and  _113
REMARK   48  A    between atoms: _113  and  _114
REMARK   49  A    between atoms: _124  and  _126
REMARK   50  A    between atoms: _126  and  _127
REMARK   51  A    between atoms: _126  and  _129
REMARK   52  A    between atoms: _129  and  _130
REMARK   53  A    between atoms: _130  and  _131
REMARK   54  A    between atoms: _134  and  _136
REMARK   55  A    between atoms: _136  and  _137
REMARK   56  A    between atoms: _136  and  _139
REMARK   57  A    between atoms: _139  and  _140
REMARK   58  A    between atoms: _140  and  _141
REMARK   59  A    between atoms: _141  and  _142
REMARK   60  A    between atoms: _151  and  _153
REMARK   61  A    between atoms: _153  and  _154
REMARK   62  A    between atoms: _153  and  _156
REMARK   63  A    between atoms: _158  and  _160
REMARK   64  A    between atoms: _160  and  _161
REMARK   65  A    between atoms: _164  and  _166
REMARK   66  A    between atoms: _166  and  _167
REMARK   67  A    between atoms: _166  and  _169
REMARK   68  A    between atoms: _169  and  _170
REMARK   69  A    between atoms: _175  and  _177
REMARK   70  A    between atoms: _177  and  _178
REMARK   71  A    between atoms: _177  and  _180
REMARK   72  A    between atoms: _180  and  _181
REMARK   73  A    between atoms: _186  and  _188
REMARK   74  A    between atoms: _188  and  _189
REMARK   75  A    between atoms: _188  and  _191
REMARK   76  A    between atoms: _191  and  _192
REMARK   77  A    between atoms: _195  and  _197
REMARK   78  A    between atoms: _197  and  _198
REMARK   79  A    between atoms: _197  and  _200
REMARK   80  A    between atoms: _200  and  _201
REMARK   81  A    between atoms: _204  and  _206
REMARK   82  A    between atoms: _206  and  _207
REMARK   83  A    between atoms: _206  and  _209
REMARK   84  A    between atoms: _209  and  _210
REMARK   85  A    between atoms: _210  and  _211
REMARK   86  A    between atoms: _214  and  _216
REMARK   87  A    between atoms: _216  and  _217
REMARK   88  A    between atoms: _220  and  _222
REMARK   89  A    between atoms: _222  and  _223
REMARK   90  A    between atoms: _222  and  _225
REMARK   91  A    between atoms: _225  and  _226
REMARK   92  A    between atoms: _229  and  _231
REMARK   93  A    between atoms: _231  and  _232
REMARK   94  A    between atoms: _231  and  _234
REMARK   95  A    between atoms: _234  and  _235
REMARK   96  A    between atoms: _240  and  _241
REMARK   97  A    between atoms: _243  and  _245
REMARK   98  A    between atoms: _245  and  _246
REMARK   99  A    between atoms: _245  and  _248
REMARK  100  A    between atoms: _251  and  _253
REMARK  101  A    between atoms: _253  and  _254
REMARK  102  A    between atoms: _253  and  _256
REMARK  103  A    between atoms: _256  and  _257
REMARK  104  A    between atoms: _257  and  _258
REMARK  105  A    between atoms: _260  and  _262
REMARK  106  A    between atoms: _262  and  _263
REMARK  107  A    between atoms: _262  and  _265
REMARK  108  A    between atoms: _268  and  _270
REMARK  109  A    between atoms: _270  and  _271
REMARK  110  A    between atoms: _270  and  _273
REMARK  111  A    between atoms: _276  and  _278
REMARK  112  A    between atoms: _278  and  _279
REMARK  113  A    between atoms: _278  and  _281
REMARK  114  A    between atoms: _281  and  _282
REMARK  115  A    between atoms: _285  and  _287
REMARK  116  A    between atoms: _287  and  _288
REMARK  117  A    between atoms: _287  and  _290
REMARK  118  A    between atoms: _293  and  _295
REMARK  119  A    between atoms: _295  and  _296
REMARK  120  A    between atoms: _295  and  _298
REMARK  121  A    between atoms: _298  and  _299
REMARK  122  A    between atoms: _299  and  _300
REMARK  123  A    between atoms: _300  and  _301
REMARK  124  A    between atoms: _310  and  _312
REMARK  125  A    between atoms: _312  and  _313
REMARK  126  A    between atoms: _312  and  _315
REMARK  127  A    between atoms: _315  and  _316
REMARK  128  A    between atoms: _316  and  _317
REMARK  129  A    between atoms: _319  and  _321
REMARK  130  A    between atoms: _321  and  _322
REMARK  131  A    between atoms: _321  and  _324
REMARK  132  A    between atoms: _326  and  _328
REMARK  133  A    between atoms: _328  and  _329
REMARK  134  A    between atoms: _328  and  _331
REMARK  135  A    between atoms: _331  and  _332
REMARK  136  A    between atoms: _332  and  _333
REMARK  137  A    between atoms: _333  and  _334
REMARK  138  A    between atoms: _343  and  _345
REMARK  139  A    between atoms: _345  and  _346
REMARK  140  A    between atoms: _349  and  _351
REMARK  141  A    between atoms: _351  and  _352
REMARK  142  A    between atoms: _351  and  _354
REMARK  143  A    between atoms: _354  and  _355
REMARK  144  A    between atoms: _360  and  _361
REMARK  145  A    between atoms: _363  and  _365
REMARK  146  A    between atoms: _365  and  _366
REMARK  147  A    between atoms: _365  and  _368
REMARK  148  A    between atoms: _368  and  _369
REMARK  149  A    between atoms: _374  and  _376
REMARK  150  A    between atoms: _376  and  _377
REMARK  151  A    between atoms: _376  and  _379
REMARK  152  A    between atoms: _379  and  _380
REMARK  153  A    between atoms: _380  and  _381
REMARK  154  A    between atoms: _381  and  _382
REMARK  155  A    between atoms: _391  and  _393
REMARK  156  A    between atoms: _393  and  _394
REMARK  157  A    between atoms: _393  and  _396
REMARK  158  A    between atoms: _396  and  _397
REMARK  159  A    between atoms: _400  and  _402
REMARK  160  A    between atoms: _402  and  _403
REMARK  161  A    between atoms: _402  and  _405
REMARK  162  A    between atoms: _408  and  _410
REMARK  163  A    between atoms: _410  and  _411
REMARK  164  A    between atoms: _410  and  _413
REMARK  165  A    between atoms: _413  and  _414
REMARK  166  A    between atoms: _420  and  _422
REMARK  167  A    between atoms: _422  and  _423
REMARK  168  A    between atoms: _422  and  _425
REMARK  169  A    between atoms: _425  and  _426
REMARK  170  A    between atoms: _432  and  _434
REMARK  171  A    between atoms: _434  and  _435
REMARK  172  A    between atoms: _434  and  _437
REMARK  173  A    between atoms: _437  and  _438
REMARK  174  A    between atoms: _438  and  _439
REMARK  175  A    between atoms: _442  and  _444
REMARK  176  A    between atoms: _444  and  _445
REMARK  177  A    between atoms: _447  and  _449
REMARK  178  A    between atoms: _449  and  _450
REMARK  179  A    between atoms: _449  and  _452
REMARK  180  A    between atoms: _452  and  _453
REMARK  181  A    between atoms: _453  and  _454
REMARK  182  A    between atoms: _454  and  _455
REMARK  183  A    between atoms: _455  and  _456
REMARK  184  A    between atoms: _460  and  _462
REMARK  185  A    between atoms: _462  and  _463
REMARK  186  A    between atoms: _462  and  _465
REMARK  187  A    between atoms: _465  and  _466
REMARK  188  A    between atoms: _471  and  _472
REMARK  189  A    between atoms: _474  and  _476
REMARK  190  A    between atoms: _476  and  _477
REMARK  191  A    between atoms: _479  and  _481
REMARK  192  A    between atoms: _481  and  _482
REMARK  193  A    between atoms: _484  and  _486
REMARK  194  A    between atoms: _486  and  _487
REMARK  195  A    between atoms: _486  and  _489
REMARK  196  A    between atoms: _489  and  _490
REMARK  197  A    between atoms: _490  and  _491
REMARK  198  A    between atoms: _493  and  _495
REMARK  199  A    between atoms: _495  and  _496
REMARK  200  A    between atoms: _495  and  _498
REMARK  201  A    between atoms: _498  and  _499
REMARK  202  A    between atoms: _502  and  _504
REMARK  203  A    between atoms: _504  and  _505
REMARK  204  A    between atoms: _504  and  _507
REMARK  205  A    between atoms: _507  and  _508
REMARK  206  A    between atoms: _514  and  _516
REMARK  207  A    between atoms: _516  and  _517
REMARK  208  A    between atoms: _516  and  _519
REMARK  209  A    between atoms: _519  and  _520
REMARK  210  A    between atoms: _523  and  _525
REMARK  211  A    between atoms: _525  and  _526
REMARK  212  A    between atoms: _525  and  _528
REMARK  213  A    between atoms: _530  and  _532
REMARK  214  A    between atoms: _532  and  _533
REMARK  215  A    between atoms: _532  and  _535
REMARK  216  A    between atoms: _535  and  _536
REMARK  217  A    between atoms: _539  and  _541
REMARK  218  A    between atoms: _541  and  _542
REMARK  219  A    between atoms: _541  and  _544
REMARK  220  A    between atoms: _544  and  _545
REMARK  221  A    between atoms: _548  and  _550
REMARK  222  A    between atoms: _550  and  _551
REMARK  223  A    between atoms: _550  and  _553
REMARK  224  A    between atoms: _553  and  _554
REMARK  225  A    between atoms: _556  and  _558
REMARK  226  A    between atoms: _558  and  _559
REMARK  227  A    between atoms: _558  and  _561
REMARK  228  A    between atoms: _561  and  _562
REMARK  229  A    between atoms: _564  and  _566
REMARK  230  A    between atoms: _566  and  _567
REMARK  231  A    between atoms: _566  and  _569
REMARK  232  A    between atoms: _569  and  _570
REMARK  233  A    between atoms: _573  and  _575
REMARK  234  A    between atoms: _575  and  _576
REMARK  235  A    between atoms: _575  and  _578
REMARK  236  A    between atoms: _578  and  _579
REMARK  237  A    between atoms: _585  and  _587
REMARK  238  A    between atoms: _587  and  _588
REMARK  239  A    between atoms: _587  and  _590
REMARK  240  A    between atoms: _590  and  _591
REMARK  241  A    between atoms: _594  and  _596
REMARK  242  A    between atoms: _596  and  _597
REMARK  243  A    between atoms: _596  and  _599
REMARK  244  A    between atoms: _599  and  _600
REMARK  245  A    between atoms: _606  and  _608
REMARK  246  A    between atoms: _608  and  _609
REMARK  247  A    between atoms: _608  and  _611
REMARK  248  A    between atoms: _611  and  _612
REMARK  249  A    between atoms: _614  and  _616
REMARK  250  A    between atoms: _616  and  _617
REMARK  251  A    between atoms: _616  and  _619
REMARK  252  A    between atoms: _619  and  _620
REMARK  253  A    between atoms: _625  and  _627
REMARK  254  A    between atoms: _627  and  _628
REMARK  255  A    between atoms: _627  and  _630
REMARK  256  A    between atoms: _630  and  _631
REMARK  257  A    between atoms: _633  and  _635
REMARK  258  A    between atoms: _635  and  _636
REMARK  259  A    between atoms: _635  and  _638
REMARK  260  A    between atoms: _638  and  _639
REMARK  261  A    between atoms: _639  and  _640
REMARK  262  A    between atoms: _643  and  _645
REMARK  263  A    between atoms: _645  and  _646
REMARK  264  A    between atoms: _645  and  _648
REMARK  265  A    between atoms: _648  and  _649
REMARK  266  A    between atoms: _652  and  _654
REMARK  267  A    between atoms: _654  and  _655
REMARK  268  A    between atoms: _654  and  _657
REMARK  269  A    between atoms: _657  and  _658
REMARK  270  A    between atoms: _661  and  _663
REMARK  271  A    between atoms: _663  and  _664
REMARK  272  A    between atoms: _663  and  _666
REMARK  273  A    between atoms: _668  and  _670
REMARK  274  A    between atoms: _670  and  _671
REMARK  275  A    between atoms: _670  and  _673
REMARK  276  A    between atoms: _673  and  _674
REMARK  277  A    between atoms: _674  and  _675
REMARK  278  A    between atoms: _680  and  _682
REMARK  279  A    between atoms: _682  and  _683
REMARK  280  A    between atoms: _682  and  _685
REMARK  281  A    between atoms: _685  and  _686
REMARK  282  A    between atoms: _691  and  _693
REMARK  283  A    between atoms: _693  and  _694
REMARK  284  A    between atoms: _693  and  _696
REMARK  285  A    between atoms: _699  and  _701
REMARK  286  A    between atoms: _701  and  _702
REMARK  287  A    between atoms: _701  and  _704
REMARK  288  A    between atoms: _704  and  _705
REMARK  289  A    between atoms: _705  and  _706
REMARK  290  A    between atoms: _706  and  _707
REMARK  291  A    between atoms: _716  and  _718
REMARK  292  A    between atoms: _718  and  _719
REMARK  293  A    between atoms: _718  and  _721
REMARK  294  A    between atoms: _721  and  _722
REMARK  295  A    between atoms: _725  and  _727
REMARK  296  A    between atoms: _727  and  _728
REMARK  297  A    between atoms: _727  and  _730
REMARK  298  A    between atoms: _730  and  _731
REMARK  299  A    between atoms: _737  and  _739
REMARK  300  A    between atoms: _739  and  _740
REMARK  301  A    between atoms: _739  and  _742
REMARK  302  A    between atoms: _742  and  _743
REMARK  303  A    between atoms: _748  and  _749
REMARK  304  A    between atoms: _751  and  _753
REMARK  305  A    between atoms: _753  and  _754
REMARK  306  A    between atoms: _753  and  _756
REMARK  307  A    between atoms: _756  and  _757
REMARK                            x       y       z     vdW  Elec       q    Type
REMARK                         _______ _______ _______ _____ _____    ______ ____
ROOT
ATOM      1  CG  TYR A   1     -11.206  15.827  11.005  0.00  0.00    -0.020 A 
ATOM      2  CD2 TYR A   1     -10.596  16.867  11.696  0.00  0.00    -0.001 A 
ATOM      3  CE2 TYR A   1     -11.345  17.788  12.421  0.00  0.00    +0.036 A 
ATOM      4  CZ  TYR A   1     -12.720  17.679  12.444  0.00  0.00    +0.134 A 
ATOM      5  CE1 TYR A   1     -13.353  16.664  11.757  0.00  0.00    +0.036 A 
ATOM      6  CD1 TYR A   1     -12.595  15.750  11.034  0.00  0.00    -0.001 A 
ENDROOT
BRANCH   4   7
ATOM      7  OH  TYR A   1     -13.467  18.591  13.152  0.00  0.00    -0.506 OA
ATOM      8  HH  TYR A   1     -13.206  18.559  14.107  0.00  0.00    +0.292 HD
ENDBRANCH   4   7
BRANCH   1   9
ATOM      9  CB  TYR A   1     -10.382  14.836  10.204  0.00  0.00    +0.051 C 
BRANCH   9  10
ATOM     10  CA  TYR A   1     -10.044  13.522  10.913  0.00  0.00    +0.137 C 
BRANCH  10  11
ATOM     11  N   TYR A   1      -9.224  12.691  10.036  0.00  0.00    -0.239 NA
ATOM     12  H   TYR A   1      -9.037  13.003   9.062  0.00  0.00    +0.142 HD
ENDBRANCH  10  11
BRANCH  10  13
ATOM     13  C   TYR A   1     -11.315  12.795  11.331  0.00  0.00    +0.224 C 
ATOM     14  O   TYR A   1     -11.698  12.821  12.509  0.00  0.00    -0.287 OA
ENDBRANCH  10  13
ENDBRANCH   9  10
ENDBRANCH   1   9
TORSDOF 5
REMARK  Name = ../refined-set-2016/4ymq/4ymq_pocket.pdb
REMARK  307 active torsions:
REMARK  status: ('A' for Active; 'I' for Inactive)
REMARK    1  A    between atoms: _1  and  _3
REMARK    2  A    between atoms: _3  and  _4
REMARK    3  A    between atoms: _3  and  _6
REMARK    4  A    between atoms: _6  and  _7
REMARK    5  A    between atoms: _12  and  _13
REMARK    6  A    between atoms: _15  and  _17
REMARK    7  A    between atoms: _17  and  _18
REMARK    8  A    between atoms: _17  and  _20
REMARK    9  A    between atoms: _20  and  _21
REMARK   10  A    between atoms: _24  and  _26
REMARK   11  A    between atoms: _26  and  _27
REMARK   12  A    between atoms: _26  and  _29
REMARK   13  A    between atoms: _31  and  _33
REMARK   14  A    between atoms: _33  and  _34
REMARK   15  A    between atoms: _33  and  _36
REMARK   16  A    between atoms: _36  and  _37
REMARK   17  A    between atoms: _37  and  _38
REMARK   18  A    between atoms: _43  and  _45
REMARK   19  A    between atoms: _45  and  _46
REMARK   20  A    between atoms: _45  and  _48
REMARK   21  A    between atoms: _48  and  _49
REMARK   22  A    between atoms: _52  and  _54
REMARK   23  A    between atoms: _54  and  _55
REMARK   24  A    between atoms: _54  and  _57
REMARK   25  A    between atoms: _57  and  _58
REMARK   26  A    between atoms: _58  and  _59
REMARK   27  A    between atoms: _59  and  _60
REMARK   28  A    between atoms: _69  and  _71
REMARK   29  A    between atoms: _71  and  _72
REMARK   30  A    between atoms: _71  and  _74
REMARK   31  A    between atoms: _74  and  _75
REMARK   32  A    between atoms: _78  and  _80
REMARK   33  A    between atoms: _80  and  _81
REMARK   34  A    between atoms: _80  and  _83
REMARK   35  A    between atoms: _83  and  _84
REMARK   36  A    between atoms: _87  and  _89
REMARK   37  A    between atoms: _89  and  _90
REMARK   38  A    between atoms: _89  and  _92
REMARK   39  A    between atoms: _92  and  _93
REMARK   40  A    between atoms: _99  and  _101
REMARK   41  A    between atoms: _101  and  _102
REMARK   42  A    between atoms: _101  and  _104
REMARK   43  A    between atoms: _104  and  _105
REMARK   44  A    between atoms: _105  and  _106
REMARK   45  A    between atoms: _108  and  _110
REMARK   46  A    between atoms: _110  and  _111
REMARK   47  A    between atoms: _110  and  _113
REMARK   48  A    between atoms: _113  and  _114
REMARK   49  A    between atoms: _124  and  _126
REMARK   50  A    between atoms: _126  and  _127
REMARK   51  A    between atoms: _126  and  _129
REMARK   52  A    between atoms: _129  and  _130
REMARK   53  A    between atoms: _130  and  _131
REMARK   54  A    between atoms: _134  and  _136
REMARK   55  A    between atoms: _136  and  _137
REMARK   56  A    between atoms: _136  and  _139
REMARK   57  A    between atoms: _139  and  _140
REMARK   58  A    between atoms: _140  and  _141
REMARK   59  A    between atoms: _141  and  _142
REMARK   60  A    between atoms: _151  and  _153
REMARK   61  A    between atoms: _153  and  _154
REMARK   62  A    between atoms: _153  and  _156
REMARK   63  A    between atoms: _158  and  _160
REMARK   64  A    between atoms: _160  and  _161
REMARK   65  A    between atoms: _164  and  _166
REMARK   66  A    between atoms: _166  and  _167
REMARK   67  A    between atoms: _166  and  _169
REMARK   68  A    between atoms: _169  and  _170
REMARK   69  A    between atoms: _175  and  _177
REMARK   70  A    between atoms: _177  and  _178
REMARK   71  A    between atoms: _177  and  _180
REMARK   72  A    between atoms: _180  and  _181
REMARK   73  A    between atoms: _186  and  _188
REMARK   74  A    between atoms: _188  and  _189
REMARK   75  A    between atoms: _188  and  _191
REMARK   76  A    between atoms: _191  and  _192
REMARK   77  A    between atoms: _195  and  _197
REMARK   78  A    between atoms: _197  and  _198
REMARK   79  A    between atoms: _197  and  _200
REMARK   80  A    between atoms: _200  and  _201
REMARK   81  A    between atoms: _204  and  _206
REMARK   82  A    between atoms: _206  and  _207
REMARK   83  A    between atoms: _206  and  _209
REMARK   84  A    between atoms: _209  and  _210
REMARK   85  A    between atoms: _210  and  _211
REMARK   86  A    between atoms: _214  and  _216
REMARK   87  A    between atoms: _216  and  _217
REMARK   88  A    between atoms: _220  and  _222
REMARK   89  A    between atoms: _222  and  _223
REMARK   90  A    between atoms: _222  and  _225
REMARK   91  A    between atoms: _225  and  _226
REMARK   92  A    between atoms: _229  and  _231
REMARK   93  A    between atoms: _231  and  _232
REMARK   94  A    between atoms: _231  and  _234
REMARK   95  A    between atoms: _234  and  _235
REMARK   96  A    between atoms: _240  and  _241
REMARK   97  A    between atoms: _243  and  _245
REMARK   98  A    between atoms: _245  and  _246
REMARK   99  A    between atoms: _245  and  _248
REMARK  100  A    between atoms: _251  and  _253
REMARK  101  A    between atoms: _253  and  _254
REMARK  102  A    between atoms: _253  and  _256
REMARK  103  A    between atoms: _256  and  _257
REMARK  104  A    between atoms: _257  and  _258
REMARK  105  A    between atoms: _260  and  _262
REMARK  106  A    between atoms: _262  and  _263
REMARK  107  A    between atoms: _262  and  _265
REMARK  108  A    between atoms: _268  and  _270
REMARK  109  A    between atoms: _270  and  _271
REMARK  110  A    between atoms: _270  and  _273
REMARK  111  A    between atoms: _276  and  _278
REMARK  112  A    between atoms: _278  and  _279
REMARK  113  A    between atoms: _278  and  _281
REMARK  114  A    between atoms: _281  and  _282
REMARK  115  A    between atoms: _285  and  _287
REMARK  116  A    between atoms: _287  and  _288
REMARK  117  A    between atoms: _287  and  _290
REMARK  118  A    between atoms: _293  and  _295
REMARK  119  A    between atoms: _295  and  _296
REMARK  120  A    between atoms: _295  and  _298
REMARK  121  A    between atoms: _298  and  _299
REMARK  122  A    between atoms: _299  and  _300
REMARK  123  A    between atoms: _300  and  _301
REMARK  124  A    between atoms: _310  and  _312
REMARK  125  A    between atoms: _312  and  _313
REMARK  126  A    between atoms: _312  and  _315
REMARK  127  A    between atoms: _315  and  _316
REMARK  128  A    between atoms: _316  and  _317
REMARK  129  A    between atoms: _319  and  _321
REMARK  130  A    between atoms: _321  and  _322
REMARK  131  A    between atoms: _321  and  _324
REMARK  132  A    between atoms: _326  and  _328
REMARK  133  A    between atoms: _328  and  _329
REMARK  134  A    between atoms: _328  and  _331
REMARK  135  A    between atoms: _331  and  _332
REMARK  136  A    between atoms: _332  and  _333
REMARK  137  A    between atoms: _333  and  _334
REMARK  138  A    between atoms: _343  and  _345
REMARK  139  A    between atoms: _345  and  _346
REMARK  140  A    between atoms: _349  and  _351
REMARK  141  A    between atoms: _351  and  _352
REMARK  142  A    between atoms: _351  and  _354
REMARK  143  A    between atoms: _354  and  _355
REMARK  144  A    between atoms: _360  and  _361
REMARK  145  A    between atoms: _363  and  _365
REMARK  146  A    between atoms: _365  and  _366
REMARK  147  A    between atoms: _365  and  _368
REMARK  148  A    between atoms: _368  and  _369
REMARK  149  A    between atoms: _374  and  _376
REMARK  150  A    between atoms: _376  and  _377
REMARK  151  A    between atoms: _376  and  _379
REMARK  152  A    between atoms: _379  and  _380
REMARK  153  A    between atoms: _380  and  _381
REMARK  154  A    between atoms: _381  and  _382
REMARK  155  A    between atoms: _391  and  _393
REMARK  156  A    between atoms: _393  and  _394
REMARK  157  A    between atoms: _393  and  _396
REMARK  158  A    between atoms: _396  and  _397
REMARK  159  A    between atoms: _400  and  _402
REMARK  160  A    between atoms: _402  and  _403
REMARK  161  A    between atoms: _402  and  _405
REMARK  162  A    between atoms: _408  and  _410
REMARK  163  A    between atoms: _410  and  _411
REMARK  164  A    between atoms: _410  and  _413
REMARK  165  A    between atoms: _413  and  _414
REMARK  166  A    between atoms: _420  and  _422
REMARK  167  A    between atoms: _422  and  _423
REMARK  168  A    between atoms: _422  and  _425
REMARK  169  A    between atoms: _425  and  _426
REMARK  170  A    between atoms: _432  and  _434
REMARK  171  A    between atoms: _434  and  _435
REMARK  172  A    between atoms: _434  and  _437
REMARK  173  A    between atoms: _437  and  _438
REMARK  174  A    between atoms: _438  and  _439
REMARK  175  A    between atoms: _442  and  _444
REMARK  176  A    between atoms: _444  and  _445
REMARK  177  A    between atoms: _447  and  _449
REMARK  178  A    between atoms: _449  and  _450
REMARK  179  A    between atoms: _449  and  _452
REMARK  180  A    between atoms: _452  and  _453
REMARK  181  A    between atoms: _453  and  _454
REMARK  182  A    between atoms: _454  and  _455
REMARK  183  A    between atoms: _455  and  _456
REMARK  184  A    between atoms: _460  and  _462
REMARK  185  A    between atoms: _462  and  _463
REMARK  186  A    between atoms: _462  and  _465
REMARK  187  A    between atoms: _465  and  _466
REMARK  188  A    between atoms: _471  and  _472
REMARK  189  A    between atoms: _474  and  _476
REMARK  190  A    between atoms: _476  and  _477
REMARK  191  A    between atoms: _479  and  _481
REMARK  192  A    between atoms: _481  and  _482
REMARK  193  A    between atoms: _484  and  _486
REMARK  194  A    between atoms: _486  and  _487
REMARK  195  A    between atoms: _486  and  _489
REMARK  196  A    between atoms: _489  and  _490
REMARK  197  A    between atoms: _490  and  _491
REMARK  198  A    between atoms: _493  and  _495
REMARK  199  A    between atoms: _495  and  _496
REMARK  200  A    between atoms: _495  and  _498
REMARK  201  A    between atoms: _498  and  _499
REMARK  202  A    between atoms: _502  and  _504
REMARK  203  A    between atoms: _504  and  _505
REMARK  204  A    between atoms: _504  and  _507
REMARK  205  A    between atoms: _507  and  _508
REMARK  206  A    between atoms: _514  and  _516
REMARK  207  A    between atoms: _516  and  _517
REMARK  208  A    between atoms: _516  and  _519
REMARK  209  A    between atoms: _519  and  _520
REMARK  210  A    between atoms: _523  and  _525
REMARK  211  A    between atoms: _525  and  _526
REMARK  212  A    between atoms: _525  and  _528
REMARK  213  A    between atoms: _530  and  _532
REMARK  214  A    between atoms: _532  and  _533
REMARK  215  A    between atoms: _532  and  _535
REMARK  216  A    between atoms: _535  and  _536
REMARK  217  A    between atoms: _539  and  _541
REMARK  218  A    between atoms: _541  and  _542
REMARK  219  A    between atoms: _541  and  _544
REMARK  220  A    between atoms: _544  and  _545
REMARK  221  A    between atoms: _548  and  _550
REMARK  222  A    between atoms: _550  and  _551
REMARK  223  A    between atoms: _550  and  _553
REMARK  224  A    between atoms: _553  and  _554
REMARK  225  A    between atoms: _556  and  _558
REMARK  226  A    between atoms: _558  and  _559
REMARK  227  A    between atoms: _558  and  _561
REMARK  228  A    between atoms: _561  and  _562
REMARK  229  A    between atoms: _564  and  _566
REMARK  230  A    between atoms: _566  and  _567
REMARK  231  A    between atoms: _566  and  _569
REMARK  232  A    between atoms: _569  and  _570
REMARK  233  A    between atoms: _573  and  _575
REMARK  234  A    between atoms: _575  and  _576
REMARK  235  A    between atoms: _575  and  _578
REMARK  236  A    between atoms: _578  and  _579
REMARK  237  A    between atoms: _585  and  _587
REMARK  238  A    between atoms: _587  and  _588
REMARK  239  A    between atoms: _587  and  _590
REMARK  240  A    between atoms: _590  and  _591
REMARK  241  A    between atoms: _594  and  _596
REMARK  242  A    between atoms: _596  and  _597
REMARK  243  A    between atoms: _596  and  _599
REMARK  244  A    between atoms: _599  and  _600
REMARK  245  A    between atoms: _606  and  _608
REMARK  246  A    between atoms: _608  and  _609
REMARK  247  A    between atoms: _608  and  _611
REMARK  248  A    between atoms: _611  and  _612
REMARK  249  A    between atoms: _614  and  _616
REMARK  250  A    between atoms: _616  and  _617
REMARK  251  A    between atoms: _616  and  _619
REMARK  252  A    between atoms: _619  and  _620
REMARK  253  A    between atoms: _625  and  _627
REMARK  254  A    between atoms: _627  and  _628
REMARK  255  A    between atoms: _627  and  _630
REMARK  256  A    between atoms: _630  and  _631
REMARK  257  A    between atoms: _633  and  _635
REMARK  258  A    between atoms: _635  and  _636
REMARK  259  A    between atoms: _635  and  _638
REMARK  260  A    between atoms: _638  and  _639
REMARK  261  A    between atoms: _639  and  _640
REMARK  262  A    between atoms: _643  and  _645
REMARK  263  A    between atoms: _645  and  _646
REMARK  264  A    between atoms: _645  and  _648
REMARK  265  A    between atoms: _648  and  _649
REMARK  266  A    between atoms: _652  and  _654
REMARK  267  A    between atoms: _654  and  _655
REMARK  268  A    between atoms: _654  and  _657
REMARK  269  A    between atoms: _657  and  _658
REMARK  270  A    between atoms: _661  and  _663
REMARK  271  A    between atoms: _663  and  _664
REMARK  272  A    between atoms: _663  and  _666
REMARK  273  A    between atoms: _668  and  _670
REMARK  274  A    between atoms: _670  and  _671
REMARK  275  A    between atoms: _670  and  _673
REMARK  276  A    between atoms: _673  and  _674
REMARK  277  A    between atoms: _674  and  _675
REMARK  278  A    between atoms: _680  and  _682
REMARK  279  A    between atoms: _682  and  _683
REMARK  280  A    between atoms: _682  and  _685
REMARK  281  A    between atoms: _685  and  _686
REMARK  282  A    between atoms: _691  and  _693
REMARK  283  A    between atoms: _693  and  _694
REMARK  284  A    between atoms: _693  and  _696
REMARK  285  A    between atoms: _699  and  _701
REMARK  286  A    between atoms: _701  and  _702
REMARK  287  A    between atoms: _701  and  _704
REMARK  288  A    between atoms: _704  and  _705
REMARK  289  A    between atoms: _705  and  _706
REMARK  290  A    between atoms: _706  and  _707
REMARK  291  A    between atoms: _716  and  _718
REMARK  292  A    between atoms: _718  and  _719
REMARK  293  A    between atoms: _718  and  _721
REMARK  294  A    between atoms: _721  and  _722
REMARK  295  A    between atoms: _725  and  _727
REMARK  296  A    between atoms: _727  and  _728
REMARK  297  A    between atoms: _727  and  _730
REMARK  298  A    between atoms: _730  and  _731
REMARK  299  A    between atoms: _737  and  _739
REMARK  300  A    between atoms: _739  and  _740
REMARK  301  A    between atoms: _739  and  _742
REMARK  302  A    between atoms: _742  and  _743
REMARK  303  A    between atoms: _748  and  _749
REMARK  304  A    between atoms: _751  and  _753
REMARK  305  A    between atoms: _753  and  _754
REMARK  306  A    between atoms: _753  and  _756
REMARK  307  A    between atoms: _756  and  _757
REMARK                            x       y       z     vdW  Elec       q    Type
REMARK                         _______ _______ _______ _____ _____    ______ ____
ROOT
ATOM      1  CB  PHE A   1     -13.152  14.195  15.466  0.00  0.00    +0.051 C 
ENDROOT
BRANCH   1   2
ATOM      2  CG  PHE A   1     -11.727  14.569  15.735  0.00  0.00    -0.020 A 
ATOM      3  CD2 PHE A   1     -11.226  14.542  17.026  0.00  0.00    -0.004 A 
ATOM      4  CE2 PHE A   1      -9.913  14.895  17.283  0.00  0.00    -0.000 A 
ATOM      5  CZ  PHE A   1      -9.090  15.276  16.241  0.00  0.00    -0.000 A 
ATOM      6  CE1 PHE A   1      -9.584  15.312  14.946  0.00  0.00    -0.000 A 
ATOM      7  CD1 PHE A   1     -10.891  14.956  14.698  0.00  0.00    -0.004 A 
ENDBRANCH   1   2
BRANCH   1   8
ATOM      8  CA  PHE A   1     -13.479  12.732  15.796  0.00  0.00    +0.137 C 
BRANCH   8   9
ATOM      9  N   PHE A   1     -12.498  11.843  15.193  0.00  0.00    -0.239 NA
ATOM     10  H   PHE A   1     -12.437  11.770  14.157  0.00  0.00    +0.142 HD
ENDBRANCH   8   9
BRANCH   8  11
ATOM     11  C   PHE A   1     -14.931  12.457  15.423  0.00  0.00    +0.224 C 
ATOM     12  O   PHE A   1     -15.826  12.951  16.120  0.00  0.00    -0.287 OA
ENDBRANCH   8  11
ENDBRANCH   1   8
TORSDOF 4
REMARK  Name = ../refined-set-2016/4ymq/4ymq_pocket.pdb
REMARK  307 active torsions:
REMARK  status: ('A' for Active; 'I' for Inactive)
REMARK    1  A    between atoms: _1  and  _3
REMARK    2  A    between atoms: _3  and  _4
REMARK    3  A    between atoms: _3  and  _6
REMARK    4  A    between atoms: _6  and  _7
REMARK    5  A    between atoms: _12  and  _13
REMARK    6  A    between atoms: _15  and  _17
REMARK    7  A    between atoms: _17  and  _18
REMARK    8  A    between atoms: _17  and  _20
REMARK    9  A    between atoms: _20  and  _21
REMARK   10  A    between atoms: _24  and  _26
REMARK   11  A    between atoms: _26  and  _27
REMARK   12  A    between atoms: _26  and  _29
REMARK   13  A    between atoms: _31  and  _33
REMARK   14  A    between atoms: _33  and  _34
REMARK   15  A    between atoms: _33  and  _36
REMARK   16  A    between atoms: _36  and  _37
REMARK   17  A    between atoms: _37  and  _38
REMARK   18  A    between atoms: _43  and  _45
REMARK   19  A    between atoms: _45  and  _46
REMARK   20  A    between atoms: _45  and  _48
REMARK   21  A    between atoms: _48  and  _49
REMARK   22  A    between atoms: _52  and  _54
REMARK   23  A    between atoms: _54  and  _55
REMARK   24  A    between atoms: _54  and  _57
REMARK   25  A    between atoms: _57  and  _58
REMARK   26  A    between atoms: _58  and  _59
REMARK   27  A    between atoms: _59  and  _60
REMARK   28  A    between atoms: _69  and  _71
REMARK   29  A    between atoms: _71  and  _72
REMARK   30  A    between atoms: _71  and  _74
REMARK   31  A    between atoms: _74  and  _75
REMARK   32  A    between atoms: _78  and  _80
REMARK   33  A    between atoms: _80  and  _81
REMARK   34  A    between atoms: _80  and  _83
REMARK   35  A    between atoms: _83  and  _84
REMARK   36  A    between atoms: _87  and  _89
REMARK   37  A    between atoms: _89  and  _90
REMARK   38  A    between atoms: _89  and  _92
REMARK   39  A    between atoms: _92  and  _93
REMARK   40  A    between atoms: _99  and  _101
REMARK   41  A    between atoms: _101  and  _102
REMARK   42  A    between atoms: _101  and  _104
REMARK   43  A    between atoms: _104  and  _105
REMARK   44  A    between atoms: _105  and  _106
REMARK   45  A    between atoms: _108  and  _110
REMARK   46  A    between atoms: _110  and  _111
REMARK   47  A    between atoms: _110  and  _113
REMARK   48  A    between atoms: _113  and  _114
REMARK   49  A    between atoms: _124  and  _126
REMARK   50  A    between atoms: _126  and  _127
REMARK   51  A    between atoms: _126  and  _129
REMARK   52  A    between atoms: _129  and  _130
REMARK   53  A    between atoms: _130  and  _131
REMARK   54  A    between atoms: _134  and  _136
REMARK   55  A    between atoms: _136  and  _137
REMARK   56  A    between atoms: _136  and  _139
REMARK   57  A    between atoms: _139  and  _140
REMARK   58  A    between atoms: _140  and  _141
REMARK   59  A    between atoms: _141  and  _142
REMARK   60  A    between atoms: _151  and  _153
REMARK   61  A    between atoms: _153  and  _154
REMARK   62  A    between atoms: _153  and  _156
REMARK   63  A    between atoms: _158  and  _160
REMARK   64  A    between atoms: _160  and  _161
REMARK   65  A    between atoms: _164  and  _166
REMARK   66  A    between atoms: _166  and  _167
REMARK   67  A    between atoms: _166  and  _169
REMARK   68  A    between atoms: _169  and  _170
REMARK   69  A    between atoms: _175  and  _177
REMARK   70  A    between atoms: _177  and  _178
REMARK   71  A    between atoms: _177  and  _180
REMARK   72  A    between atoms: _180  and  _181
REMARK   73  A    between atoms: _186  and  _188
REMARK   74  A    between atoms: _188  and  _189
REMARK   75  A    between atoms: _188  and  _191
REMARK   76  A    between atoms: _191  and  _192
REMARK   77  A    between atoms: _195  and  _197
REMARK   78  A    between atoms: _197  and  _198
REMARK   79  A    between atoms: _197  and  _200
REMARK   80  A    between atoms: _200  and  _201
REMARK   81  A    between atoms: _204  and  _206
REMARK   82  A    between atoms: _206  and  _207
REMARK   83  A    between atoms: _206  and  _209
REMARK   84  A    between atoms: _209  and  _210
REMARK   85  A    between atoms: _210  and  _211
REMARK   86  A    between atoms: _214  and  _216
REMARK   87  A    between atoms: _216  and  _217
REMARK   88  A    between atoms: _220  and  _222
REMARK   89  A    between atoms: _222  and  _223
REMARK   90  A    between atoms: _222  and  _225
REMARK   91  A    between atoms: _225  and  _226
REMARK   92  A    between atoms: _229  and  _231
REMARK   93  A    between atoms: _231  and  _232
REMARK   94  A    between atoms: _231  and  _234
REMARK   95  A    between atoms: _234  and  _235
REMARK   96  A    between atoms: _240  and  _241
REMARK   97  A    between atoms: _243  and  _245
REMARK   98  A    between atoms: _245  and  _246
REMARK   99  A    between atoms: _245  and  _248
REMARK  100  A    between atoms: _251  and  _253
REMARK  101  A    between atoms: _253  and  _254
REMARK  102  A    between atoms: _253  and  _256
REMARK  103  A    between atoms: _256  and  _257
REMARK  104  A    between atoms: _257  and  _258
REMARK  105  A    between atoms: _260  and  _262
REMARK  106  A    between atoms: _262  and  _263
REMARK  107  A    between atoms: _262  and  _265
REMARK  108  A    between atoms: _268  and  _270
REMARK  109  A    between atoms: _270  and  _271
REMARK  110  A    between atoms: _270  and  _273
REMARK  111  A    between atoms: _276  and  _278
REMARK  112  A    between atoms: _278  and  _279
REMARK  113  A    between atoms: _278  and  _281
REMARK  114  A    between atoms: _281  and  _282
REMARK  115  A    between atoms: _285  and  _287
REMARK  116  A    between atoms: _287  and  _288
REMARK  117  A    between atoms: _287  and  _290
REMARK  118  A    between atoms: _293  and  _295
REMARK  119  A    between atoms: _295  and  _296
REMARK  120  A    between atoms: _295  and  _298
REMARK  121  A    between atoms: _298  and  _299
REMARK  122  A    between atoms: _299  and  _300
REMARK  123  A    between atoms: _300  and  _301
REMARK  124  A    between atoms: _310  and  _312
REMARK  125  A    between atoms: _312  and  _313
REMARK  126  A    between atoms: _312  and  _315
REMARK  127  A    between atoms: _315  and  _316
REMARK  128  A    between atoms: _316  and  _317
REMARK  129  A    between atoms: _319  and  _321
REMARK  130  A    between atoms: _321  and  _322
REMARK  131  A    between atoms: _321  and  _324
REMARK  132  A    between atoms: _326  and  _328
REMARK  133  A    between atoms: _328  and  _329
REMARK  134  A    between atoms: _328  and  _331
REMARK  135  A    between atoms: _331  and  _332
REMARK  136  A    between atoms: _332  and  _333
REMARK  137  A    between atoms: _333  and  _334
REMARK  138  A    between atoms: _343  and  _345
REMARK  139  A    between atoms: _345  and  _346
REMARK  140  A    between atoms: _349  and  _351
REMARK  141  A    between atoms: _351  and  _352
REMARK  142  A    between atoms: _351  and  _354
REMARK  143  A    between atoms: _354  and  _355
REMARK  144  A    between atoms: _360  and  _361
REMARK  145  A    between atoms: _363  and  _365
REMARK  146  A    between atoms: _365  and  _366
REMARK  147  A    between atoms: _365  and  _368
REMARK  148  A    between atoms: _368  and  _369
REMARK  149  A    between atoms: _374  and  _376
REMARK  150  A    between atoms: _376  and  _377
REMARK  151  A    between atoms: _376  and  _379
REMARK  152  A    between atoms: _379  and  _380
REMARK  153  A    between atoms: _380  and  _381
REMARK  154  A    between atoms: _381  and  _382
REMARK  155  A    between atoms: _391  and  _393
REMARK  156  A    between atoms: _393  and  _394
REMARK  157  A    between atoms: _393  and  _396
REMARK  158  A    between atoms: _396  and  _397
REMARK  159  A    between atoms: _400  and  _402
REMARK  160  A    between atoms: _402  and  _403
REMARK  161  A    between atoms: _402  and  _405
REMARK  162  A    between atoms: _408  and  _410
REMARK  163  A    between atoms: _410  and  _411
REMARK  164  A    between atoms: _410  and  _413
REMARK  165  A    between atoms: _413  and  _414
REMARK  166  A    between atoms: _420  and  _422
REMARK  167  A    between atoms: _422  and  _423
REMARK  168  A    between atoms: _422  and  _425
REMARK  169  A    between atoms: _425  and  _426
REMARK  170  A    between atoms: _432  and  _434
REMARK  171  A    between atoms: _434  and  _435
REMARK  172  A    between atoms: _434  and  _437
REMARK  173  A    between atoms: _437  and  _438
REMARK  174  A    between atoms: _438  and  _439
REMARK  175  A    between atoms: _442  and  _444
REMARK  176  A    between atoms: _444  and  _445
REMARK  177  A    between atoms: _447  and  _449
REMARK  178  A    between atoms: _449  and  _450
REMARK  179  A    between atoms: _449  and  _452
REMARK  180  A    between atoms: _452  and  _453
REMARK  181  A    between atoms: _453  and  _454
REMARK  182  A    between atoms: _454  and  _455
REMARK  183  A    between atoms: _455  and  _456
REMARK  184  A    between atoms: _460  and  _462
REMARK  185  A    between atoms: _462  and  _463
REMARK  186  A    between atoms: _462  and  _465
REMARK  187  A    between atoms: _465  and  _466
REMARK  188  A    between atoms: _471  and  _472
REMARK  189  A    between atoms: _474  and  _476
REMARK  190  A    between atoms: _476  and  _477
REMARK  191  A    between atoms: _479  and  _481
REMARK  192  A    between atoms: _481  and  _482
REMARK  193  A    between atoms: _484  and  _486
REMARK  194  A    between atoms: _486  and  _487
REMARK  195  A    between atoms: _486  and  _489
REMARK  196  A    between atoms: _489  and  _490
REMARK  197  A    between atoms: _490  and  _491
REMARK  198  A    between atoms: _493  and  _495
REMARK  199  A    between atoms: _495  and  _496
REMARK  200  A    between atoms: _495  and  _498
REMARK  201  A    between atoms: _498  and  _499
REMARK  202  A    between atoms: _502  and  _504
REMARK  203  A    between atoms: _504  and  _505
REMARK  204  A    between atoms: _504  and  _507
REMARK  205  A    between atoms: _507  and  _508
REMARK  206  A    between atoms: _514  and  _516
REMARK  207  A    between atoms: _516  and  _517
REMARK  208  A    between atoms: _516  and  _519
REMARK  209  A    between atoms: _519  and  _520
REMARK  210  A    between atoms: _523  and  _525
REMARK  211  A    between atoms: _525  and  _526
REMARK  212  A    between atoms: _525  and  _528
REMARK  213  A    between atoms: _530  and  _532
REMARK  214  A    between atoms: _532  and  _533
REMARK  215  A    between atoms: _532  and  _535
REMARK  216  A    between atoms: _535  and  _536
REMARK  217  A    between atoms: _539  and  _541
REMARK  218  A    between atoms: _541  and  _542
REMARK  219  A    between atoms: _541  and  _544
REMARK  220  A    between atoms: _544  and  _545
REMARK  221  A    between atoms: _548  and  _550
REMARK  222  A    between atoms: _550  and  _551
REMARK  223  A    between atoms: _550  and  _553
REMARK  224  A    between atoms: _553  and  _554
REMARK  225  A    between atoms: _556  and  _558
REMARK  226  A    between atoms: _558  and  _559
REMARK  227  A    between atoms: _558  and  _561
REMARK  228  A    between atoms: _561  and  _562
REMARK  229  A    between atoms: _564  and  _566
REMARK  230  A    between atoms: _566  and  _567
REMARK  231  A    between atoms: _566  and  _569
REMARK  232  A    between atoms: _569  and  _570
REMARK  233  A    between atoms: _573  and  _575
REMARK  234  A    between atoms: _575  and  _576
REMARK  235  A    between atoms: _575  and  _578
REMARK  236  A    between atoms: _578  and  _579
REMARK  237  A    between atoms: _585  and  _587
REMARK  238  A    between atoms: _587  and  _588
REMARK  239  A    between atoms: _587  and  _590
REMARK  240  A    between atoms: _590  and  _591
REMARK  241  A    between atoms: _594  and  _596
REMARK  242  A    between atoms: _596  and  _597
REMARK  243  A    between atoms: _596  and  _599
REMARK  244  A    between atoms: _599  and  _600
REMARK  245  A    between atoms: _606  and  _608
REMARK  246  A    between atoms: _608  and  _609
REMARK  247  A    between atoms: _608  and  _611
REMARK  248  A    between atoms: _611  and  _612
REMARK  249  A    between atoms: _614  and  _616
REMARK  250  A    between atoms: _616  and  _617
REMARK  251  A    between atoms: _616  and  _619
REMARK  252  A    between atoms: _619  and  _620
REMARK  253  A    between atoms: _625  and  _627
REMARK  254  A    between atoms: _627  and  _628
REMARK  255  A    between atoms: _627  and  _630
REMARK  256  A    between atoms: _630  and  _631
REMARK  257  A    between atoms: _633  and  _635
REMARK  258  A    between atoms: _635  and  _636
REMARK  259  A    between atoms: _635  and  _638
REMARK  260  A    between atoms: _638  and  _639
REMARK  261  A    between atoms: _639  and  _640
REMARK  262  A    between atoms: _643  and  _645
REMARK  263  A    between atoms: _645  and  _646
REMARK  264  A    between atoms: _645  and  _648
REMARK  265  A    between atoms: _648  and  _649
REMARK  266  A    between atoms: _652  and  _654
REMARK  267  A    between atoms: _654  and  _655
REMARK  268  A    between atoms: _654  and  _657
REMARK  269  A    between atoms: _657  and  _658
REMARK  270  A    between atoms: _661  and  _663
REMARK  271  A    between atoms: _663  and  _664
REMARK  272  A    between atoms: _663  and  _666
REMARK  273  A    between atoms: _668  and  _670
REMARK  274  A    between atoms: _670  and  _671
REMARK  275  A    between atoms: _670  and  _673
REMARK  276  A    between atoms: _673  and  _674
REMARK  277  A    between atoms: _674  and  _675
REMARK  278  A    between atoms: _680  and  _682
REMARK  279  A    between atoms: _682  and  _683
REMARK  280  A    between atoms: _682  and  _685
REMARK  281  A    between atoms: _685  and  _686
REMARK  282  A    between atoms: _691  and  _693
REMARK  283  A    between atoms: _693  and  _694
REMARK  284  A    between atoms: _693  and  _696
REMARK  285  A    between atoms: _699  and  _701
REMARK  286  A    between atoms: _701  and  _702
REMARK  287  A    between atoms: _701  and  _704
REMARK  288  A    between atoms: _704  and  _705
REMARK  289  A    between atoms: _705  and  _706
REMARK  290  A    between atoms: _706  and  _707
REMARK  291  A    between atoms: _716  and  _718
REMARK  292  A    between atoms: _718  and  _719
REMARK  293  A    between atoms: _718  and  _721
REMARK  294  A    between atoms: _721  and  _722
REMARK  295  A    between atoms: _725  and  _727
REMARK  296  A    between atoms: _727  and  _728
REMARK  297  A    between atoms: _727  and  _730
REMARK  298  A    between atoms: _730  and  _731
REMARK  299  A    between atoms: _737  and  _739
REMARK  300  A    between atoms: _739  and  _740
REMARK  301  A    between atoms: _739  and  _742
REMARK  302  A    between atoms: _742  and  _743
REMARK  303  A    between atoms: _748  and  _749
REMARK  304  A    between atoms: _751  and  _753
REMARK  305  A    between atoms: _753  and  _754
REMARK  306  A    between atoms: _753  and  _756
REMARK  307  A    between atoms: _756  and  _757
REMARK                            x       y       z     vdW  Elec       q    Type
REMARK                         _______ _______ _______ _____ _____    ______ ____
ROOT
ATOM      1  O   HOH     1     -20.654  23.789  15.627  0.00  0.00    +0.000 OA
ENDROOT
TORSDOF 0
REMARK  Name = ../refined-set-2016/4ymq/4ymq_pocket.pdb
REMARK  307 active torsions:
REMARK  status: ('A' for Active; 'I' for Inactive)
REMARK    1  A    between atoms: _1  and  _3
REMARK    2  A    between atoms: _3  and  _4
REMARK    3  A    between atoms: _3  and  _6
REMARK    4  A    between atoms: _6  and  _7
REMARK    5  A    between atoms: _12  and  _13
REMARK    6  A    between atoms: _15  and  _17
REMARK    7  A    between atoms: _17  and  _18
REMARK    8  A    between atoms: _17  and  _20
REMARK    9  A    between atoms: _20  and  _21
REMARK   10  A    between atoms: _24  and  _26
REMARK   11  A    between atoms: _26  and  _27
REMARK   12  A    between atoms: _26  and  _29
REMARK   13  A    between atoms: _31  and  _33
REMARK   14  A    between atoms: _33  and  _34
REMARK   15  A    between atoms: _33  and  _36
REMARK   16  A    between atoms: _36  and  _37
REMARK   17  A    between atoms: _37  and  _38
REMARK   18  A    between atoms: _43  and  _45
REMARK   19  A    between atoms: _45  and  _46
REMARK   20  A    between atoms: _45  and  _48
REMARK   21  A    between atoms: _48  and  _49
REMARK   22  A    between atoms: _52  and  _54
REMARK   23  A    between atoms: _54  and  _55
REMARK   24  A    between atoms: _54  and  _57
REMARK   25  A    between atoms: _57  and  _58
REMARK   26  A    between atoms: _58  and  _59
REMARK   27  A    between atoms: _59  and  _60
REMARK   28  A    between atoms: _69  and  _71
REMARK   29  A    between atoms: _71  and  _72
REMARK   30  A    between atoms: _71  and  _74
REMARK   31  A    between atoms: _74  and  _75
REMARK   32  A    between atoms: _78  and  _80
REMARK   33  A    between atoms: _80  and  _81
REMARK   34  A    between atoms: _80  and  _83
REMARK   35  A    between atoms: _83  and  _84
REMARK   36  A    between atoms: _87  and  _89
REMARK   37  A    between atoms: _89  and  _90
REMARK   38  A    between atoms: _89  and  _92
REMARK   39  A    between atoms: _92  and  _93
REMARK   40  A    between atoms: _99  and  _101
REMARK   41  A    between atoms: _101  and  _102
REMARK   42  A    between atoms: _101  and  _104
REMARK   43  A    between atoms: _104  and  _105
REMARK   44  A    between atoms: _105  and  _106
REMARK   45  A    between atoms: _108  and  _110
REMARK   46  A    between atoms: _110  and  _111
REMARK   47  A    between atoms: _110  and  _113
REMARK   48  A    between atoms: _113  and  _114
REMARK   49  A    between atoms: _124  and  _126
REMARK   50  A    between atoms: _126  and  _127
REMARK   51  A    between atoms: _126  and  _129
REMARK   52  A    between atoms: _129  and  _130
REMARK   53  A    between atoms: _130  and  _131
REMARK   54  A    between atoms: _134  and  _136
REMARK   55  A    between atoms: _136  and  _137
REMARK   56  A    between atoms: _136  and  _139
REMARK   57  A    between atoms: _139  and  _140
REMARK   58  A    between atoms: _140  and  _141
REMARK   59  A    between atoms: _141  and  _142
REMARK   60  A    between atoms: _151  and  _153
REMARK   61  A    between atoms: _153  and  _154
REMARK   62  A    between atoms: _153  and  _156
REMARK   63  A    between atoms: _158  and  _160
REMARK   64  A    between atoms: _160  and  _161
REMARK   65  A    between atoms: _164  and  _166
REMARK   66  A    between atoms: _166  and  _167
REMARK   67  A    between atoms: _166  and  _169
REMARK   68  A    between atoms: _169  and  _170
REMARK   69  A    between atoms: _175  and  _177
REMARK   70  A    between atoms: _177  and  _178
REMARK   71  A    between atoms: _177  and  _180
REMARK   72  A    between atoms: _180  and  _181
REMARK   73  A    between atoms: _186  and  _188
REMARK   74  A    between atoms: _188  and  _189
REMARK   75  A    between atoms: _188  and  _191
REMARK   76  A    between atoms: _191  and  _192
REMARK   77  A    between atoms: _195  and  _197
REMARK   78  A    between atoms: _197  and  _198
REMARK   79  A    between atoms: _197  and  _200
REMARK   80  A    between atoms: _200  and  _201
REMARK   81  A    between atoms: _204  and  _206
REMARK   82  A    between atoms: _206  and  _207
REMARK   83  A    between atoms: _206  and  _209
REMARK   84  A    between atoms: _209  and  _210
REMARK   85  A    between atoms: _210  and  _211
REMARK   86  A    between atoms: _214  and  _216
REMARK   87  A    between atoms: _216  and  _217
REMARK   88  A    between atoms: _220  and  _222
REMARK   89  A    between atoms: _222  and  _223
REMARK   90  A    between atoms: _222  and  _225
REMARK   91  A    between atoms: _225  and  _226
REMARK   92  A    between atoms: _229  and  _231
REMARK   93  A    between atoms: _231  and  _232
REMARK   94  A    between atoms: _231  and  _234
REMARK   95  A    between atoms: _234  and  _235
REMARK   96  A    between atoms: _240  and  _241
REMARK   97  A    between atoms: _243  and  _245
REMARK   98  A    between atoms: _245  and  _246
REMARK   99  A    between atoms: _245  and  _248
REMARK  100  A    between atoms: _251  and  _253
REMARK  101  A    between atoms: _253  and  _254
REMARK  102  A    between atoms: _253  and  _256
REMARK  103  A    between atoms: _256  and  _257
REMARK  104  A    between atoms: _257  and  _258
REMARK  105  A    between atoms: _260  and  _262
REMARK  106  A    between atoms: _262  and  _263
REMARK  107  A    between atoms: _262  and  _265
REMARK  108  A    between atoms: _268  and  _270
REMARK  109  A    between atoms: _270  and  _271
REMARK  110  A    between atoms: _270  and  _273
REMARK  111  A    between atoms: _276  and  _278
REMARK  112  A    between atoms: _278  and  _279
REMARK  113  A    between atoms: _278  and  _281
REMARK  114  A    between atoms: _281  and  _282
REMARK  115  A    between atoms: _285  and  _287
REMARK  116  A    between atoms: _287  and  _288
REMARK  117  A    between atoms: _287  and  _290
REMARK  118  A    between atoms: _293  and  _295
REMARK  119  A    between atoms: _295  and  _296
REMARK  120  A    between atoms: _295  and  _298
REMARK  121  A    between atoms: _298  and  _299
REMARK  122  A    between atoms: _299  and  _300
REMARK  123  A    between atoms: _300  and  _301
REMARK  124  A    between atoms: _310  and  _312
REMARK  125  A    between atoms: _312  and  _313
REMARK  126  A    between atoms: _312  and  _315
REMARK  127  A    between atoms: _315  and  _316
REMARK  128  A    between atoms: _316  and  _317
REMARK  129  A    between atoms: _319  and  _321
REMARK  130  A    between atoms: _321  and  _322
REMARK  131  A    between atoms: _321  and  _324
REMARK  132  A    between atoms: _326  and  _328
REMARK  133  A    between atoms: _328  and  _329
REMARK  134  A    between atoms: _328  and  _331
REMARK  135  A    between atoms: _331  and  _332
REMARK  136  A    between atoms: _332  and  _333
REMARK  137  A    between atoms: _333  and  _334
REMARK  138  A    between atoms: _343  and  _345
REMARK  139  A    between atoms: _345  and  _346
REMARK  140  A    between atoms: _349  and  _351
REMARK  141  A    between atoms: _351  and  _352
REMARK  142  A    between atoms: _351  and  _354
REMARK  143  A    between atoms: _354  and  _355
REMARK  144  A    between atoms: _360  and  _361
REMARK  145  A    between atoms: _363  and  _365
REMARK  146  A    between atoms: _365  and  _366
REMARK  147  A    between atoms: _365  and  _368
REMARK  148  A    between atoms: _368  and  _369
REMARK  149  A    between atoms: _374  and  _376
REMARK  150  A    between atoms: _376  and  _377
REMARK  151  A    between atoms: _376  and  _379
REMARK  152  A    between atoms: _379  and  _380
REMARK  153  A    between atoms: _380  and  _381
REMARK  154  A    between atoms: _381  and  _382
REMARK  155  A    between atoms: _391  and  _393
REMARK  156  A    between atoms: _393  and  _394
REMARK  157  A    between atoms: _393  and  _396
REMARK  158  A    between atoms: _396  and  _397
REMARK  159  A    between atoms: _400  and  _402
REMARK  160  A    between atoms: _402  and  _403
REMARK  161  A    between atoms: _402  and  _405
REMARK  162  A    between atoms: _408  and  _410
REMARK  163  A    between atoms: _410  and  _411
REMARK  164  A    between atoms: _410  and  _413
REMARK  165  A    between atoms: _413  and  _414
REMARK  166  A    between atoms: _420  and  _422
REMARK  167  A    between atoms: _422  and  _423
REMARK  168  A    between atoms: _422  and  _425
REMARK  169  A    between atoms: _425  and  _426
REMARK  170  A    between atoms: _432  and  _434
REMARK  171  A    between atoms: _434  and  _435
REMARK  172  A    between atoms: _434  and  _437
REMARK  173  A    between atoms: _437  and  _438
REMARK  174  A    between atoms: _438  and  _439
REMARK  175  A    between atoms: _442  and  _444
REMARK  176  A    between atoms: _444  and  _445
REMARK  177  A    between atoms: _447  and  _449
REMARK  178  A    between atoms: _449  and  _450
REMARK  179  A    between atoms: _449  and  _452
REMARK  180  A    between atoms: _452  and  _453
REMARK  181  A    between atoms: _453  and  _454
REMARK  182  A    between atoms: _454  and  _455
REMARK  183  A    between atoms: _455  and  _456
REMARK  184  A    between atoms: _460  and  _462
REMARK  185  A    between atoms: _462  and  _463
REMARK  186  A    between atoms: _462  and  _465
REMARK  187  A    between atoms: _465  and  _466
REMARK  188  A    between atoms: _471  and  _472
REMARK  189  A    between atoms: _474  and  _476
REMARK  190  A    between atoms: _476  and  _477
REMARK  191  A    between atoms: _479  and  _481
REMARK  192  A    between atoms: _481  and  _482
REMARK  193  A    between atoms: _484  and  _486
REMARK  194  A    between atoms: _486  and  _487
REMARK  195  A    between atoms: _486  and  _489
REMARK  196  A    between atoms: _489  and  _490
REMARK  197  A    between atoms: _490  and  _491
REMARK  198  A    between atoms: _493  and  _495
REMARK  199  A    between atoms: _495  and  _496
REMARK  200  A    between atoms: _495  and  _498
REMARK  201  A    between atoms: _498  and  _499
REMARK  202  A    between atoms: _502  and  _504
REMARK  203  A    between atoms: _504  and  _505
REMARK  204  A    between atoms: _504  and  _507
REMARK  205  A    between atoms: _507  and  _508
REMARK  206  A    between atoms: _514  and  _516
REMARK  207  A    between atoms: _516  and  _517
REMARK  208  A    between atoms: _516  and  _519
REMARK  209  A    between atoms: _519  and  _520
REMARK  210  A    between atoms: _523  and  _525
REMARK  211  A    between atoms: _525  and  _526
REMARK  212  A    between atoms: _525  and  _528
REMARK  213  A    between atoms: _530  and  _532
REMARK  214  A    between atoms: _532  and  _533
REMARK  215  A    between atoms: _532  and  _535
REMARK  216  A    between atoms: _535  and  _536
REMARK  217  A    between atoms: _539  and  _541
REMARK  218  A    between atoms: _541  and  _542
REMARK  219  A    between atoms: _541  and  _544
REMARK  220  A    between atoms: _544  and  _545
REMARK  221  A    between atoms: _548  and  _550
REMARK  222  A    between atoms: _550  and  _551
REMARK  223  A    between atoms: _550  and  _553
REMARK  224  A    between atoms: _553  and  _554
REMARK  225  A    between atoms: _556  and  _558
REMARK  226  A    between atoms: _558  and  _559
REMARK  227  A    between atoms: _558  and  _561
REMARK  228  A    between atoms: _561  and  _562
REMARK  229  A    between atoms: _564  and  _566
REMARK  230  A    between atoms: _566  and  _567
REMARK  231  A    between atoms: _566  and  _569
REMARK  232  A    between atoms: _569  and  _570
REMARK  233  A    between atoms: _573  and  _575
REMARK  234  A    between atoms: _575  and  _576
REMARK  235  A    between atoms: _575  and  _578
REMARK  236  A    between atoms: _578  and  _579
REMARK  237  A    between atoms: _585  and  _587
REMARK  238  A    between atoms: _587  and  _588
REMARK  239  A    between atoms: _587  and  _590
REMARK  240  A    between atoms: _590  and  _591
REMARK  241  A    between atoms: _594  and  _596
REMARK  242  A    between atoms: _596  and  _597
REMARK  243  A    between atoms: _596  and  _599
REMARK  244  A    between atoms: _599  and  _600
REMARK  245  A    between atoms: _606  and  _608
REMARK  246  A    between atoms: _608  and  _609
REMARK  247  A    between atoms: _608  and  _611
REMARK  248  A    between atoms: _611  and  _612
REMARK  249  A    between atoms: _614  and  _616
REMARK  250  A    between atoms: _616  and  _617
REMARK  251  A    between atoms: _616  and  _619
REMARK  252  A    between atoms: _619  and  _620
REMARK  253  A    between atoms: _625  and  _627
REMARK  254  A    between atoms: _627  and  _628
REMARK  255  A    between atoms: _627  and  _630
REMARK  256  A    between atoms: _630  and  _631
REMARK  257  A    between atoms: _633  and  _635
REMARK  258  A    between atoms: _635  and  _636
REMARK  259  A    between atoms: _635  and  _638
REMARK  260  A    between atoms: _638  and  _639
REMARK  261  A    between atoms: _639  and  _640
REMARK  262  A    between atoms: _643  and  _645
REMARK  263  A    between atoms: _645  and  _646
REMARK  264  A    between atoms: _645  and  _648
REMARK  265  A    between atoms: _648  and  _649
REMARK  266  A    between atoms: _652  and  _654
REMARK  267  A    between atoms: _654  and  _655
REMARK  268  A    between atoms: _654  and  _657
REMARK  269  A    between atoms: _657  and  _658
REMARK  270  A    between atoms: _661  and  _663
REMARK  271  A    between atoms: _663  and  _664
REMARK  272  A    between atoms: _663  and  _666
REMARK  273  A    between atoms: _668  and  _670
REMARK  274  A    between atoms: _670  and  _671
REMARK  275  A    between atoms: _670  and  _673
REMARK  276  A    between atoms: _673  and  _674
REMARK  277  A    between atoms: _674  and  _675
REMARK  278  A    between atoms: _680  and  _682
REMARK  279  A    between atoms: _682  and  _683
REMARK  280  A    between atoms: _682  and  _685
REMARK  281  A    between atoms: _685  and  _686
REMARK  282  A    between atoms: _691  and  _693
REMARK  283  A    between atoms: _693  and  _694
REMARK  284  A    between atoms: _693  and  _696
REMARK  285  A    between atoms: _699  and  _701
REMARK  286  A    between atoms: _701  and  _702
REMARK  287  A    between atoms: _701  and  _704
REMARK  288  A    between atoms: _704  and  _705
REMARK  289  A    between atoms: _705  and  _706
REMARK  290  A    between atoms: _706  and  _707
REMARK  291  A    between atoms: _716  and  _718
REMARK  292  A    between atoms: _718  and  _719
REMARK  293  A    between atoms: _718  and  _721
REMARK  294  A    between atoms: _721  and  _722
REMARK  295  A    between atoms: _725  and  _727
REMARK  296  A    between atoms: _727  and  _728
REMARK  297  A    between atoms: _727  and  _730
REMARK  298  A    between atoms: _730  and  _731
REMARK  299  A    between atoms: _737  and  _739
REMARK  300  A    between atoms: _739  and  _740
REMARK  301  A    between atoms: _739  and  _742
REMARK  302  A    between atoms: _742  and  _743
REMARK  303  A    between atoms: _748  and  _749
REMARK  304  A    between atoms: _751  and  _753
REMARK  305  A    between atoms: _753  and  _754
REMARK  306  A    between atoms: _753  and  _756
REMARK  307  A    between atoms: _756  and  _757
REMARK                            x       y       z     vdW  Elec       q    Type
REMARK                         _______ _______ _______ _____ _____    ______ ____
ROOT
ATOM      1  O   HOH     1     -11.461  16.631  20.061  0.00  0.00    +0.000 OA
ENDROOT
TORSDOF 0
REMARK  Name = ../refined-set-2016/4ymq/4ymq_pocket.pdb
REMARK  307 active torsions:
REMARK  status: ('A' for Active; 'I' for Inactive)
REMARK    1  A    between atoms: _1  and  _3
REMARK    2  A    between atoms: _3  and  _4
REMARK    3  A    between atoms: _3  and  _6
REMARK    4  A    between atoms: _6  and  _7
REMARK    5  A    between atoms: _12  and  _13
REMARK    6  A    between atoms: _15  and  _17
REMARK    7  A    between atoms: _17  and  _18
REMARK    8  A    between atoms: _17  and  _20
REMARK    9  A    between atoms: _20  and  _21
REMARK   10  A    between atoms: _24  and  _26
REMARK   11  A    between atoms: _26  and  _27
REMARK   12  A    between atoms: _26  and  _29
REMARK   13  A    between atoms: _31  and  _33
REMARK   14  A    between atoms: _33  and  _34
REMARK   15  A    between atoms: _33  and  _36
REMARK   16  A    between atoms: _36  and  _37
REMARK   17  A    between atoms: _37  and  _38
REMARK   18  A    between atoms: _43  and  _45
REMARK   19  A    between atoms: _45  and  _46
REMARK   20  A    between atoms: _45  and  _48
REMARK   21  A    between atoms: _48  and  _49
REMARK   22  A    between atoms: _52  and  _54
REMARK   23  A    between atoms: _54  and  _55
REMARK   24  A    between atoms: _54  and  _57
REMARK   25  A    between atoms: _57  and  _58
REMARK   26  A    between atoms: _58  and  _59
REMARK   27  A    between atoms: _59  and  _60
REMARK   28  A    between atoms: _69  and  _71
REMARK   29  A    between atoms: _71  and  _72
REMARK   30  A    between atoms: _71  and  _74
REMARK   31  A    between atoms: _74  and  _75
REMARK   32  A    between atoms: _78  and  _80
REMARK   33  A    between atoms: _80  and  _81
REMARK   34  A    between atoms: _80  and  _83
REMARK   35  A    between atoms: _83  and  _84
REMARK   36  A    between atoms: _87  and  _89
REMARK   37  A    between atoms: _89  and  _90
REMARK   38  A    between atoms: _89  and  _92
REMARK   39  A    between atoms: _92  and  _93
REMARK   40  A    between atoms: _99  and  _101
REMARK   41  A    between atoms: _101  and  _102
REMARK   42  A    between atoms: _101  and  _104
REMARK   43  A    between atoms: _104  and  _105
REMARK   44  A    between atoms: _105  and  _106
REMARK   45  A    between atoms: _108  and  _110
REMARK   46  A    between atoms: _110  and  _111
REMARK   47  A    between atoms: _110  and  _113
REMARK   48  A    between atoms: _113  and  _114
REMARK   49  A    between atoms: _124  and  _126
REMARK   50  A    between atoms: _126  and  _127
REMARK   51  A    between atoms: _126  and  _129
REMARK   52  A    between atoms: _129  and  _130
REMARK   53  A    between atoms: _130  and  _131
REMARK   54  A    between atoms: _134  and  _136
REMARK   55  A    between atoms: _136  and  _137
REMARK   56  A    between atoms: _136  and  _139
REMARK   57  A    between atoms: _139  and  _140
REMARK   58  A    between atoms: _140  and  _141
REMARK   59  A    between atoms: _141  and  _142
REMARK   60  A    between atoms: _151  and  _153
REMARK   61  A    between atoms: _153  and  _154
REMARK   62  A    between atoms: _153  and  _156
REMARK   63  A    between atoms: _158  and  _160
REMARK   64  A    between atoms: _160  and  _161
REMARK   65  A    between atoms: _164  and  _166
REMARK   66  A    between atoms: _166  and  _167
REMARK   67  A    between atoms: _166  and  _169
REMARK   68  A    between atoms: _169  and  _170
REMARK   69  A    between atoms: _175  and  _177
REMARK   70  A    between atoms: _177  and  _178
REMARK   71  A    between atoms: _177  and  _180
REMARK   72  A    between atoms: _180  and  _181
REMARK   73  A    between atoms: _186  and  _188
REMARK   74  A    between atoms: _188  and  _189
REMARK   75  A    between atoms: _188  and  _191
REMARK   76  A    between atoms: _191  and  _192
REMARK   77  A    between atoms: _195  and  _197
REMARK   78  A    between atoms: _197  and  _198
REMARK   79  A    between atoms: _197  and  _200
REMARK   80  A    between atoms: _200  and  _201
REMARK   81  A    between atoms: _204  and  _206
REMARK   82  A    between atoms: _206  and  _207
REMARK   83  A    between atoms: _206  and  _209
REMARK   84  A    between atoms: _209  and  _210
REMARK   85  A    between atoms: _210  and  _211
REMARK   86  A    between atoms: _214  and  _216
REMARK   87  A    between atoms: _216  and  _217
REMARK   88  A    between atoms: _220  and  _222
REMARK   89  A    between atoms: _222  and  _223
REMARK   90  A    between atoms: _222  and  _225
REMARK   91  A    between atoms: _225  and  _226
REMARK   92  A    between atoms: _229  and  _231
REMARK   93  A    between atoms: _231  and  _232
REMARK   94  A    between atoms: _231  and  _234
REMARK   95  A    between atoms: _234  and  _235
REMARK   96  A    between atoms: _240  and  _241
REMARK   97  A    between atoms: _243  and  _245
REMARK   98  A    between atoms: _245  and  _246
REMARK   99  A    between atoms: _245  and  _248
REMARK  100  A    between atoms: _251  and  _253
REMARK  101  A    between atoms: _253  and  _254
REMARK  102  A    between atoms: _253  and  _256
REMARK  103  A    between atoms: _256  and  _257
REMARK  104  A    between atoms: _257  and  _258
REMARK  105  A    between atoms: _260  and  _262
REMARK  106  A    between atoms: _262  and  _263
REMARK  107  A    between atoms: _262  and  _265
REMARK  108  A    between atoms: _268  and  _270
REMARK  109  A    between atoms: _270  and  _271
REMARK  110  A    between atoms: _270  and  _273
REMARK  111  A    between atoms: _276  and  _278
REMARK  112  A    between atoms: _278  and  _279
REMARK  113  A    between atoms: _278  and  _281
REMARK  114  A    between atoms: _281  and  _282
REMARK  115  A    between atoms: _285  and  _287
REMARK  116  A    between atoms: _287  and  _288
REMARK  117  A    between atoms: _287  and  _290
REMARK  118  A    between atoms: _293  and  _295
REMARK  119  A    between atoms: _295  and  _296
REMARK  120  A    between atoms: _295  and  _298
REMARK  121  A    between atoms: _298  and  _299
REMARK  122  A    between atoms: _299  and  _300
REMARK  123  A    between atoms: _300  and  _301
REMARK  124  A    between atoms: _310  and  _312
REMARK  125  A    between atoms: _312  and  _313
REMARK  126  A    between atoms: _312  and  _315
REMARK  127  A    between atoms: _315  and  _316
REMARK  128  A    between atoms: _316  and  _317
REMARK  129  A    between atoms: _319  and  _321
REMARK  130  A    between atoms: _321  and  _322
REMARK  131  A    between atoms: _321  and  _324
REMARK  132  A    between atoms: _326  and  _328
REMARK  133  A    between atoms: _328  and  _329
REMARK  134  A    between atoms: _328  and  _331
REMARK  135  A    between atoms: _331  and  _332
REMARK  136  A    between atoms: _332  and  _333
REMARK  137  A    between atoms: _333  and  _334
REMARK  138  A    between atoms: _343  and  _345
REMARK  139  A    between atoms: _345  and  _346
REMARK  140  A    between atoms: _349  and  _351
REMARK  141  A    between atoms: _351  and  _352
REMARK  142  A    between atoms: _351  and  _354
REMARK  143  A    between atoms: _354  and  _355
REMARK  144  A    between atoms: _360  and  _361
REMARK  145  A    between atoms: _363  and  _365
REMARK  146  A    between atoms: _365  and  _366
REMARK  147  A    between atoms: _365  and  _368
REMARK  148  A    between atoms: _368  and  _369
REMARK  149  A    between atoms: _374  and  _376
REMARK  150  A    between atoms: _376  and  _377
REMARK  151  A    between atoms: _376  and  _379
REMARK  152  A    between atoms: _379  and  _380
REMARK  153  A    between atoms: _380  and  _381
REMARK  154  A    between atoms: _381  and  _382
REMARK  155  A    between atoms: _391  and  _393
REMARK  156  A    between atoms: _393  and  _394
REMARK  157  A    between atoms: _393  and  _396
REMARK  158  A    between atoms: _396  and  _397
REMARK  159  A    between atoms: _400  and  _402
REMARK  160  A    between atoms: _402  and  _403
REMARK  161  A    between atoms: _402  and  _405
REMARK  162  A    between atoms: _408  and  _410
REMARK  163  A    between atoms: _410  and  _411
REMARK  164  A    between atoms: _410  and  _413
REMARK  165  A    between atoms: _413  and  _414
REMARK  166  A    between atoms: _420  and  _422
REMARK  167  A    between atoms: _422  and  _423
REMARK  168  A    between atoms: _422  and  _425
REMARK  169  A    between atoms: _425  and  _426
REMARK  170  A    between atoms: _432  and  _434
REMARK  171  A    between atoms: _434  and  _435
REMARK  172  A    between atoms: _434  and  _437
REMARK  173  A    between atoms: _437  and  _438
REMARK  174  A    between atoms: _438  and  _439
REMARK  175  A    between atoms: _442  and  _444
REMARK  176  A    between atoms: _444  and  _445
REMARK  177  A    between atoms: _447  and  _449
REMARK  178  A    between atoms: _449  and  _450
REMARK  179  A    between atoms: _449  and  _452
REMARK  180  A    between atoms: _452  and  _453
REMARK  181  A    between atoms: _453  and  _454
REMARK  182  A    between atoms: _454  and  _455
REMARK  183  A    between atoms: _455  and  _456
REMARK  184  A    between atoms: _460  and  _462
REMARK  185  A    between atoms: _462  and  _463
REMARK  186  A    between atoms: _462  and  _465
REMARK  187  A    between atoms: _465  and  _466
REMARK  188  A    between atoms: _471  and  _472
REMARK  189  A    between atoms: _474  and  _476
REMARK  190  A    between atoms: _476  and  _477
REMARK  191  A    between atoms: _479  and  _481
REMARK  192  A    between atoms: _481  and  _482
REMARK  193  A    between atoms: _484  and  _486
REMARK  194  A    between atoms: _486  and  _487
REMARK  195  A    between atoms: _486  and  _489
REMARK  196  A    between atoms: _489  and  _490
REMARK  197  A    between atoms: _490  and  _491
REMARK  198  A    between atoms: _493  and  _495
REMARK  199  A    between atoms: _495  and  _496
REMARK  200  A    between atoms: _495  and  _498
REMARK  201  A    between atoms: _498  and  _499
REMARK  202  A    between atoms: _502  and  _504
REMARK  203  A    between atoms: _504  and  _505
REMARK  204  A    between atoms: _504  and  _507
REMARK  205  A    between atoms: _507  and  _508
REMARK  206  A    between atoms: _514  and  _516
REMARK  207  A    between atoms: _516  and  _517
REMARK  208  A    between atoms: _516  and  _519
REMARK  209  A    between atoms: _519  and  _520
REMARK  210  A    between atoms: _523  and  _525
REMARK  211  A    between atoms: _525  and  _526
REMARK  212  A    between atoms: _525  and  _528
REMARK  213  A    between atoms: _530  and  _532
REMARK  214  A    between atoms: _532  and  _533
REMARK  215  A    between atoms: _532  and  _535
REMARK  216  A    between atoms: _535  and  _536
REMARK  217  A    between atoms: _539  and  _541
REMARK  218  A    between atoms: _541  and  _542
REMARK  219  A    between atoms: _541  and  _544
REMARK  220  A    between atoms: _544  and  _545
REMARK  221  A    between atoms: _548  and  _550
REMARK  222  A    between atoms: _550  and  _551
REMARK  223  A    between atoms: _550  and  _553
REMARK  224  A    between atoms: _553  and  _554
REMARK  225  A    between atoms: _556  and  _558
REMARK  226  A    between atoms: _558  and  _559
REMARK  227  A    between atoms: _558  and  _561
REMARK  228  A    between atoms: _561  and  _562
REMARK  229  A    between atoms: _564  and  _566
REMARK  230  A    between atoms: _566  and  _567
REMARK  231  A    between atoms: _566  and  _569
REMARK  232  A    between atoms: _569  and  _570
REMARK  233  A    between atoms: _573  and  _575
REMARK  234  A    between atoms: _575  and  _576
REMARK  235  A    between atoms: _575  and  _578
REMARK  236  A    between atoms: _578  and  _579
REMARK  237  A    between atoms: _585  and  _587
REMARK  238  A    between atoms: _587  and  _588
REMARK  239  A    between atoms: _587  and  _590
REMARK  240  A    between atoms: _590  and  _591
REMARK  241  A    between atoms: _594  and  _596
REMARK  242  A    between atoms: _596  and  _597
REMARK  243  A    between atoms: _596  and  _599
REMARK  244  A    between atoms: _599  and  _600
REMARK  245  A    between atoms: _606  and  _608
REMARK  246  A    between atoms: _608  and  _609
REMARK  247  A    between atoms: _608  and  _611
REMARK  248  A    between atoms: _611  and  _612
REMARK  249  A    between atoms: _614  and  _616
REMARK  250  A    between atoms: _616  and  _617
REMARK  251  A    between atoms: _616  and  _619
REMARK  252  A    between atoms: _619  and  _620
REMARK  253  A    between atoms: _625  and  _627
REMARK  254  A    between atoms: _627  and  _628
REMARK  255  A    between atoms: _627  and  _630
REMARK  256  A    between atoms: _630  and  _631
REMARK  257  A    between atoms: _633  and  _635
REMARK  258  A    between atoms: _635  and  _636
REMARK  259  A    between atoms: _635  and  _638
REMARK  260  A    between atoms: _638  and  _639
REMARK  261  A    between atoms: _639  and  _640
REMARK  262  A    between atoms: _643  and  _645
REMARK  263  A    between atoms: _645  and  _646
REMARK  264  A    between atoms: _645  and  _648
REMARK  265  A    between atoms: _648  and  _649
REMARK  266  A    between atoms: _652  and  _654
REMARK  267  A    between atoms: _654  and  _655
REMARK  268  A    between atoms: _654  and  _657
REMARK  269  A    between atoms: _657  and  _658
REMARK  270  A    between atoms: _661  and  _663
REMARK  271  A    between atoms: _663  and  _664
REMARK  272  A    between atoms: _663  and  _666
REMARK  273  A    between atoms: _668  and  _670
REMARK  274  A    between atoms: _670  and  _671
REMARK  275  A    between atoms: _670  and  _673
REMARK  276  A    between atoms: _673  and  _674
REMARK  277  A    between atoms: _674  and  _675
REMARK  278  A    between atoms: _680  and  _682
REMARK  279  A    between atoms: _682  and  _683
REMARK  280  A    between atoms: _682  and  _685
REMARK  281  A    between atoms: _685  and  _686
REMARK  282  A    between atoms: _691  and  _693
REMARK  283  A    between atoms: _693  and  _694
REMARK  284  A    between atoms: _693  and  _696
REMARK  285  A    between atoms: _699  and  _701
REMARK  286  A    between atoms: _701  and  _702
REMARK  287  A    between atoms: _701  and  _704
REMARK  288  A    between atoms: _704  and  _705
REMARK  289  A    between atoms: _705  and  _706
REMARK  290  A    between atoms: _706  and  _707
REMARK  291  A    between atoms: _716  and  _718
REMARK  292  A    between atoms: _718  and  _719
REMARK  293  A    between atoms: _718  and  _721
REMARK  294  A    between atoms: _721  and  _722
REMARK  295  A    between atoms: _725  and  _727
REMARK  296  A    between atoms: _727  and  _728
REMARK  297  A    between atoms: _727  and  _730
REMARK  298  A    between atoms: _730  and  _731
REMARK  299  A    between atoms: _737  and  _739
REMARK  300  A    between atoms: _739  and  _740
REMARK  301  A    between atoms: _739  and  _742
REMARK  302  A    between atoms: _742  and  _743
REMARK  303  A    between atoms: _748  and  _749
REMARK  304  A    between atoms: _751  and  _753
REMARK  305  A    between atoms: _753  and  _754
REMARK  306  A    between atoms: _753  and  _756
REMARK  307  A    between atoms: _756  and  _757
REMARK                            x       y       z     vdW  Elec       q    Type
REMARK                         _______ _______ _______ _____ _____    ______ ____
ROOT
ATOM      1  O   HOH     1       1.717  19.534  14.900  0.00  0.00    +0.000 OA
ENDROOT
TORSDOF 0
REMARK  Name = ../refined-set-2016/4ymq/4ymq_pocket.pdb
REMARK  307 active torsions:
REMARK  status: ('A' for Active; 'I' for Inactive)
REMARK    1  A    between atoms: _1  and  _3
REMARK    2  A    between atoms: _3  and  _4
REMARK    3  A    between atoms: _3  and  _6
REMARK    4  A    between atoms: _6  and  _7
REMARK    5  A    between atoms: _12  and  _13
REMARK    6  A    between atoms: _15  and  _17
REMARK    7  A    between atoms: _17  and  _18
REMARK    8  A    between atoms: _17  and  _20
REMARK    9  A    between atoms: _20  and  _21
REMARK   10  A    between atoms: _24  and  _26
REMARK   11  A    between atoms: _26  and  _27
REMARK   12  A    between atoms: _26  and  _29
REMARK   13  A    between atoms: _31  and  _33
REMARK   14  A    between atoms: _33  and  _34
REMARK   15  A    between atoms: _33  and  _36
REMARK   16  A    between atoms: _36  and  _37
REMARK   17  A    between atoms: _37  and  _38
REMARK   18  A    between atoms: _43  and  _45
REMARK   19  A    between atoms: _45  and  _46
REMARK   20  A    between atoms: _45  and  _48
REMARK   21  A    between atoms: _48  and  _49
REMARK   22  A    between atoms: _52  and  _54
REMARK   23  A    between atoms: _54  and  _55
REMARK   24  A    between atoms: _54  and  _57
REMARK   25  A    between atoms: _57  and  _58
REMARK   26  A    between atoms: _58  and  _59
REMARK   27  A    between atoms: _59  and  _60
REMARK   28  A    between atoms: _69  and  _71
REMARK   29  A    between atoms: _71  and  _72
REMARK   30  A    between atoms: _71  and  _74
REMARK   31  A    between atoms: _74  and  _75
REMARK   32  A    between atoms: _78  and  _80
REMARK   33  A    between atoms: _80  and  _81
REMARK   34  A    between atoms: _80  and  _83
REMARK   35  A    between atoms: _83  and  _84
REMARK   36  A    between atoms: _87  and  _89
REMARK   37  A    between atoms: _89  and  _90
REMARK   38  A    between atoms: _89  and  _92
REMARK   39  A    between atoms: _92  and  _93
REMARK   40  A    between atoms: _99  and  _101
REMARK   41  A    between atoms: _101  and  _102
REMARK   42  A    between atoms: _101  and  _104
REMARK   43  A    between atoms: _104  and  _105
REMARK   44  A    between atoms: _105  and  _106
REMARK   45  A    between atoms: _108  and  _110
REMARK   46  A    between atoms: _110  and  _111
REMARK   47  A    between atoms: _110  and  _113
REMARK   48  A    between atoms: _113  and  _114
REMARK   49  A    between atoms: _124  and  _126
REMARK   50  A    between atoms: _126  and  _127
REMARK   51  A    between atoms: _126  and  _129
REMARK   52  A    between atoms: _129  and  _130
REMARK   53  A    between atoms: _130  and  _131
REMARK   54  A    between atoms: _134  and  _136
REMARK   55  A    between atoms: _136  and  _137
REMARK   56  A    between atoms: _136  and  _139
REMARK   57  A    between atoms: _139  and  _140
REMARK   58  A    between atoms: _140  and  _141
REMARK   59  A    between atoms: _141  and  _142
REMARK   60  A    between atoms: _151  and  _153
REMARK   61  A    between atoms: _153  and  _154
REMARK   62  A    between atoms: _153  and  _156
REMARK   63  A    between atoms: _158  and  _160
REMARK   64  A    between atoms: _160  and  _161
REMARK   65  A    between atoms: _164  and  _166
REMARK   66  A    between atoms: _166  and  _167
REMARK   67  A    between atoms: _166  and  _169
REMARK   68  A    between atoms: _169  and  _170
REMARK   69  A    between atoms: _175  and  _177
REMARK   70  A    between atoms: _177  and  _178
REMARK   71  A    between atoms: _177  and  _180
REMARK   72  A    between atoms: _180  and  _181
REMARK   73  A    between atoms: _186  and  _188
REMARK   74  A    between atoms: _188  and  _189
REMARK   75  A    between atoms: _188  and  _191
REMARK   76  A    between atoms: _191  and  _192
REMARK   77  A    between atoms: _195  and  _197
REMARK   78  A    between atoms: _197  and  _198
REMARK   79  A    between atoms: _197  and  _200
REMARK   80  A    between atoms: _200  and  _201
REMARK   81  A    between atoms: _204  and  _206
REMARK   82  A    between atoms: _206  and  _207
REMARK   83  A    between atoms: _206  and  _209
REMARK   84  A    between atoms: _209  and  _210
REMARK   85  A    between atoms: _210  and  _211
REMARK   86  A    between atoms: _214  and  _216
REMARK   87  A    between atoms: _216  and  _217
REMARK   88  A    between atoms: _220  and  _222
REMARK   89  A    between atoms: _222  and  _223
REMARK   90  A    between atoms: _222  and  _225
REMARK   91  A    between atoms: _225  and  _226
REMARK   92  A    between atoms: _229  and  _231
REMARK   93  A    between atoms: _231  and  _232
REMARK   94  A    between atoms: _231  and  _234
REMARK   95  A    between atoms: _234  and  _235
REMARK   96  A    between atoms: _240  and  _241
REMARK   97  A    between atoms: _243  and  _245
REMARK   98  A    between atoms: _245  and  _246
REMARK   99  A    between atoms: _245  and  _248
REMARK  100  A    between atoms: _251  and  _253
REMARK  101  A    between atoms: _253  and  _254
REMARK  102  A    between atoms: _253  and  _256
REMARK  103  A    between atoms: _256  and  _257
REMARK  104  A    between atoms: _257  and  _258
REMARK  105  A    between atoms: _260  and  _262
REMARK  106  A    between atoms: _262  and  _263
REMARK  107  A    between atoms: _262  and  _265
REMARK  108  A    between atoms: _268  and  _270
REMARK  109  A    between atoms: _270  and  _271
REMARK  110  A    between atoms: _270  and  _273
REMARK  111  A    between atoms: _276  and  _278
REMARK  112  A    between atoms: _278  and  _279
REMARK  113  A    between atoms: _278  and  _281
REMARK  114  A    between atoms: _281  and  _282
REMARK  115  A    between atoms: _285  and  _287
REMARK  116  A    between atoms: _287  and  _288
REMARK  117  A    between atoms: _287  and  _290
REMARK  118  A    between atoms: _293  and  _295
REMARK  119  A    between atoms: _295  and  _296
REMARK  120  A    between atoms: _295  and  _298
REMARK  121  A    between atoms: _298  and  _299
REMARK  122  A    between atoms: _299  and  _300
REMARK  123  A    between atoms: _300  and  _301
REMARK  124  A    between atoms: _310  and  _312
REMARK  125  A    between atoms: _312  and  _313
REMARK  126  A    between atoms: _312  and  _315
REMARK  127  A    between atoms: _315  and  _316
REMARK  128  A    between atoms: _316  and  _317
REMARK  129  A    between atoms: _319  and  _321
REMARK  130  A    between atoms: _321  and  _322
REMARK  131  A    between atoms: _321  and  _324
REMARK  132  A    between atoms: _326  and  _328
REMARK  133  A    between atoms: _328  and  _329
REMARK  134  A    between atoms: _328  and  _331
REMARK  135  A    between atoms: _331  and  _332
REMARK  136  A    between atoms: _332  and  _333
REMARK  137  A    between atoms: _333  and  _334
REMARK  138  A    between atoms: _343  and  _345
REMARK  139  A    between atoms: _345  and  _346
REMARK  140  A    between atoms: _349  and  _351
REMARK  141  A    between atoms: _351  and  _352
REMARK  142  A    between atoms: _351  and  _354
REMARK  143  A    between atoms: _354  and  _355
REMARK  144  A    between atoms: _360  and  _361
REMARK  145  A    between atoms: _363  and  _365
REMARK  146  A    between atoms: _365  and  _366
REMARK  147  A    between atoms: _365  and  _368
REMARK  148  A    between atoms: _368  and  _369
REMARK  149  A    between atoms: _374  and  _376
REMARK  150  A    between atoms: _376  and  _377
REMARK  151  A    between atoms: _376  and  _379
REMARK  152  A    between atoms: _379  and  _380
REMARK  153  A    between atoms: _380  and  _381
REMARK  154  A    between atoms: _381  and  _382
REMARK  155  A    between atoms: _391  and  _393
REMARK  156  A    between atoms: _393  and  _394
REMARK  157  A    between atoms: _393  and  _396
REMARK  158  A    between atoms: _396  and  _397
REMARK  159  A    between atoms: _400  and  _402
REMARK  160  A    between atoms: _402  and  _403
REMARK  161  A    between atoms: _402  and  _405
REMARK  162  A    between atoms: _408  and  _410
REMARK  163  A    between atoms: _410  and  _411
REMARK  164  A    between atoms: _410  and  _413
REMARK  165  A    between atoms: _413  and  _414
REMARK  166  A    between atoms: _420  and  _422
REMARK  167  A    between atoms: _422  and  _423
REMARK  168  A    between atoms: _422  and  _425
REMARK  169  A    between atoms: _425  and  _426
REMARK  170  A    between atoms: _432  and  _434
REMARK  171  A    between atoms: _434  and  _435
REMARK  172  A    between atoms: _434  and  _437
REMARK  173  A    between atoms: _437  and  _438
REMARK  174  A    between atoms: _438  and  _439
REMARK  175  A    between atoms: _442  and  _444
REMARK  176  A    between atoms: _444  and  _445
REMARK  177  A    between atoms: _447  and  _449
REMARK  178  A    between atoms: _449  and  _450
REMARK  179  A    between atoms: _449  and  _452
REMARK  180  A    between atoms: _452  and  _453
REMARK  181  A    between atoms: _453  and  _454
REMARK  182  A    between atoms: _454  and  _455
REMARK  183  A    between atoms: _455  and  _456
REMARK  184  A    between atoms: _460  and  _462
REMARK  185  A    between atoms: _462  and  _463
REMARK  186  A    between atoms: _462  and  _465
REMARK  187  A    between atoms: _465  and  _466
REMARK  188  A    between atoms: _471  and  _472
REMARK  189  A    between atoms: _474  and  _476
REMARK  190  A    between atoms: _476  and  _477
REMARK  191  A    between atoms: _479  and  _481
REMARK  192  A    between atoms: _481  and  _482
REMARK  193  A    between atoms: _484  and  _486
REMARK  194  A    between atoms: _486  and  _487
REMARK  195  A    between atoms: _486  and  _489
REMARK  196  A    between atoms: _489  and  _490
REMARK  197  A    between atoms: _490  and  _491
REMARK  198  A    between atoms: _493  and  _495
REMARK  199  A    between atoms: _495  and  _496
REMARK  200  A    between atoms: _495  and  _498
REMARK  201  A    between atoms: _498  and  _499
REMARK  202  A    between atoms: _502  and  _504
REMARK  203  A    between atoms: _504  and  _505
REMARK  204  A    between atoms: _504  and  _507
REMARK  205  A    between atoms: _507  and  _508
REMARK  206  A    between atoms: _514  and  _516
REMARK  207  A    between atoms: _516  and  _517
REMARK  208  A    between atoms: _516  and  _519
REMARK  209  A    between atoms: _519  and  _520
REMARK  210  A    between atoms: _523  and  _525
REMARK  211  A    between atoms: _525  and  _526
REMARK  212  A    between atoms: _525  and  _528
REMARK  213  A    between atoms: _530  and  _532
REMARK  214  A    between atoms: _532  and  _533
REMARK  215  A    between atoms: _532  and  _535
REMARK  216  A    between atoms: _535  and  _536
REMARK  217  A    between atoms: _539  and  _541
REMARK  218  A    between atoms: _541  and  _542
REMARK  219  A    between atoms: _541  and  _544
REMARK  220  A    between atoms: _544  and  _545
REMARK  221  A    between atoms: _548  and  _550
REMARK  222  A    between atoms: _550  and  _551
REMARK  223  A    between atoms: _550  and  _553
REMARK  224  A    between atoms: _553  and  _554
REMARK  225  A    between atoms: _556  and  _558
REMARK  226  A    between atoms: _558  and  _559
REMARK  227  A    between atoms: _558  and  _561
REMARK  228  A    between atoms: _561  and  _562
REMARK  229  A    between atoms: _564  and  _566
REMARK  230  A    between atoms: _566  and  _567
REMARK  231  A    between atoms: _566  and  _569
REMARK  232  A    between atoms: _569  and  _570
REMARK  233  A    between atoms: _573  and  _575
REMARK  234  A    between atoms: _575  and  _576
REMARK  235  A    between atoms: _575  and  _578
REMARK  236  A    between atoms: _578  and  _579
REMARK  237  A    between atoms: _585  and  _587
REMARK  238  A    between atoms: _587  and  _588
REMARK  239  A    between atoms: _587  and  _590
REMARK  240  A    between atoms: _590  and  _591
REMARK  241  A    between atoms: _594  and  _596
REMARK  242  A    between atoms: _596  and  _597
REMARK  243  A    between atoms: _596  and  _599
REMARK  244  A    between atoms: _599  and  _600
REMARK  245  A    between atoms: _606  and  _608
REMARK  246  A    between atoms: _608  and  _609
REMARK  247  A    between atoms: _608  and  _611
REMARK  248  A    between atoms: _611  and  _612
REMARK  249  A    between atoms: _614  and  _616
REMARK  250  A    between atoms: _616  and  _617
REMARK  251  A    between atoms: _616  and  _619
REMARK  252  A    between atoms: _619  and  _620
REMARK  253  A    between atoms: _625  and  _627
REMARK  254  A    between atoms: _627  and  _628
REMARK  255  A    between atoms: _627  and  _630
REMARK  256  A    between atoms: _630  and  _631
REMARK  257  A    between atoms: _633  and  _635
REMARK  258  A    between atoms: _635  and  _636
REMARK  259  A    between atoms: _635  and  _638
REMARK  260  A    between atoms: _638  and  _639
REMARK  261  A    between atoms: _639  and  _640
REMARK  262  A    between atoms: _643  and  _645
REMARK  263  A    between atoms: _645  and  _646
REMARK  264  A    between atoms: _645  and  _648
REMARK  265  A    between atoms: _648  and  _649
REMARK  266  A    between atoms: _652  and  _654
REMARK  267  A    between atoms: _654  and  _655
REMARK  268  A    between atoms: _654  and  _657
REMARK  269  A    between atoms: _657  and  _658
REMARK  270  A    between atoms: _661  and  _663
REMARK  271  A    between atoms: _663  and  _664
REMARK  272  A    between atoms: _663  and  _666
REMARK  273  A    between atoms: _668  and  _670
REMARK  274  A    between atoms: _670  and  _671
REMARK  275  A    between atoms: _670  and  _673
REMARK  276  A    between atoms: _673  and  _674
REMARK  277  A    between atoms: _674  and  _675
REMARK  278  A    between atoms: _680  and  _682
REMARK  279  A    between atoms: _682  and  _683
REMARK  280  A    between atoms: _682  and  _685
REMARK  281  A    between atoms: _685  and  _686
REMARK  282  A    between atoms: _691  and  _693
REMARK  283  A    between atoms: _693  and  _694
REMARK  284  A    between atoms: _693  and  _696
REMARK  285  A    between atoms: _699  and  _701
REMARK  286  A    between atoms: _701  and  _702
REMARK  287  A    between atoms: _701  and  _704
REMARK  288  A    between atoms: _704  and  _705
REMARK  289  A    between atoms: _705  and  _706
REMARK  290  A    between atoms: _706  and  _707
REMARK  291  A    between atoms: _716  and  _718
REMARK  292  A    between atoms: _718  and  _719
REMARK  293  A    between atoms: _718  and  _721
REMARK  294  A    between atoms: _721  and  _722
REMARK  295  A    between atoms: _725  and  _727
REMARK  296  A    between atoms: _727  and  _728
REMARK  297  A    between atoms: _727  and  _730
REMARK  298  A    between atoms: _730  and  _731
REMARK  299  A    between atoms: _737  and  _739
REMARK  300  A    between atoms: _739  and  _740
REMARK  301  A    between atoms: _739  and  _742
REMARK  302  A    between atoms: _742  and  _743
REMARK  303  A    between atoms: _748  and  _749
REMARK  304  A    between atoms: _751  and  _753
REMARK  305  A    between atoms: _753  and  _754
REMARK  306  A    between atoms: _753  and  _756
REMARK  307  A    between atoms: _756  and  _757
REMARK                            x       y       z     vdW  Elec       q    Type
REMARK                         _______ _______ _______ _____ _____    ______ ____
ROOT
ATOM      1  O   HOH     1       4.810  17.265  20.606  0.00  0.00    +0.000 OA
ENDROOT
TORSDOF 0
REMARK  Name = ../refined-set-2016/4ymq/4ymq_pocket.pdb
REMARK  307 active torsions:
REMARK  status: ('A' for Active; 'I' for Inactive)
REMARK    1  A    between atoms: _1  and  _3
REMARK    2  A    between atoms: _3  and  _4
REMARK    3  A    between atoms: _3  and  _6
REMARK    4  A    between atoms: _6  and  _7
REMARK    5  A    between atoms: _12  and  _13
REMARK    6  A    between atoms: _15  and  _17
REMARK    7  A    between atoms: _17  and  _18
REMARK    8  A    between atoms: _17  and  _20
REMARK    9  A    between atoms: _20  and  _21
REMARK   10  A    between atoms: _24  and  _26
REMARK   11  A    between atoms: _26  and  _27
REMARK   12  A    between atoms: _26  and  _29
REMARK   13  A    between atoms: _31  and  _33
REMARK   14  A    between atoms: _33  and  _34
REMARK   15  A    between atoms: _33  and  _36
REMARK   16  A    between atoms: _36  and  _37
REMARK   17  A    between atoms: _37  and  _38
REMARK   18  A    between atoms: _43  and  _45
REMARK   19  A    between atoms: _45  and  _46
REMARK   20  A    between atoms: _45  and  _48
REMARK   21  A    between atoms: _48  and  _49
REMARK   22  A    between atoms: _52  and  _54
REMARK   23  A    between atoms: _54  and  _55
REMARK   24  A    between atoms: _54  and  _57
REMARK   25  A    between atoms: _57  and  _58
REMARK   26  A    between atoms: _58  and  _59
REMARK   27  A    between atoms: _59  and  _60
REMARK   28  A    between atoms: _69  and  _71
REMARK   29  A    between atoms: _71  and  _72
REMARK   30  A    between atoms: _71  and  _74
REMARK   31  A    between atoms: _74  and  _75
REMARK   32  A    between atoms: _78  and  _80
REMARK   33  A    between atoms: _80  and  _81
REMARK   34  A    between atoms: _80  and  _83
REMARK   35  A    between atoms: _83  and  _84
REMARK   36  A    between atoms: _87  and  _89
REMARK   37  A    between atoms: _89  and  _90
REMARK   38  A    between atoms: _89  and  _92
REMARK   39  A    between atoms: _92  and  _93
REMARK   40  A    between atoms: _99  and  _101
REMARK   41  A    between atoms: _101  and  _102
REMARK   42  A    between atoms: _101  and  _104
REMARK   43  A    between atoms: _104  and  _105
REMARK   44  A    between atoms: _105  and  _106
REMARK   45  A    between atoms: _108  and  _110
REMARK   46  A    between atoms: _110  and  _111
REMARK   47  A    between atoms: _110  and  _113
REMARK   48  A    between atoms: _113  and  _114
REMARK   49  A    between atoms: _124  and  _126
REMARK   50  A    between atoms: _126  and  _127
REMARK   51  A    between atoms: _126  and  _129
REMARK   52  A    between atoms: _129  and  _130
REMARK   53  A    between atoms: _130  and  _131
REMARK   54  A    between atoms: _134  and  _136
REMARK   55  A    between atoms: _136  and  _137
REMARK   56  A    between atoms: _136  and  _139
REMARK   57  A    between atoms: _139  and  _140
REMARK   58  A    between atoms: _140  and  _141
REMARK   59  A    between atoms: _141  and  _142
REMARK   60  A    between atoms: _151  and  _153
REMARK   61  A    between atoms: _153  and  _154
REMARK   62  A    between atoms: _153  and  _156
REMARK   63  A    between atoms: _158  and  _160
REMARK   64  A    between atoms: _160  and  _161
REMARK   65  A    between atoms: _164  and  _166
REMARK   66  A    between atoms: _166  and  _167
REMARK   67  A    between atoms: _166  and  _169
REMARK   68  A    between atoms: _169  and  _170
REMARK   69  A    between atoms: _175  and  _177
REMARK   70  A    between atoms: _177  and  _178
REMARK   71  A    between atoms: _177  and  _180
REMARK   72  A    between atoms: _180  and  _181
REMARK   73  A    between atoms: _186  and  _188
REMARK   74  A    between atoms: _188  and  _189
REMARK   75  A    between atoms: _188  and  _191
REMARK   76  A    between atoms: _191  and  _192
REMARK   77  A    between atoms: _195  and  _197
REMARK   78  A    between atoms: _197  and  _198
REMARK   79  A    between atoms: _197  and  _200
REMARK   80  A    between atoms: _200  and  _201
REMARK   81  A    between atoms: _204  and  _206
REMARK   82  A    between atoms: _206  and  _207
REMARK   83  A    between atoms: _206  and  _209
REMARK   84  A    between atoms: _209  and  _210
REMARK   85  A    between atoms: _210  and  _211
REMARK   86  A    between atoms: _214  and  _216
REMARK   87  A    between atoms: _216  and  _217
REMARK   88  A    between atoms: _220  and  _222
REMARK   89  A    between atoms: _222  and  _223
REMARK   90  A    between atoms: _222  and  _225
REMARK   91  A    between atoms: _225  and  _226
REMARK   92  A    between atoms: _229  and  _231
REMARK   93  A    between atoms: _231  and  _232
REMARK   94  A    between atoms: _231  and  _234
REMARK   95  A    between atoms: _234  and  _235
REMARK   96  A    between atoms: _240  and  _241
REMARK   97  A    between atoms: _243  and  _245
REMARK   98  A    between atoms: _245  and  _246
REMARK   99  A    between atoms: _245  and  _248
REMARK  100  A    between atoms: _251  and  _253
REMARK  101  A    between atoms: _253  and  _254
REMARK  102  A    between atoms: _253  and  _256
REMARK  103  A    between atoms: _256  and  _257
REMARK  104  A    between atoms: _257  and  _258
REMARK  105  A    between atoms: _260  and  _262
REMARK  106  A    between atoms: _262  and  _263
REMARK  107  A    between atoms: _262  and  _265
REMARK  108  A    between atoms: _268  and  _270
REMARK  109  A    between atoms: _270  and  _271
REMARK  110  A    between atoms: _270  and  _273
REMARK  111  A    between atoms: _276  and  _278
REMARK  112  A    between atoms: _278  and  _279
REMARK  113  A    between atoms: _278  and  _281
REMARK  114  A    between atoms: _281  and  _282
REMARK  115  A    between atoms: _285  and  _287
REMARK  116  A    between atoms: _287  and  _288
REMARK  117  A    between atoms: _287  and  _290
REMARK  118  A    between atoms: _293  and  _295
REMARK  119  A    between atoms: _295  and  _296
REMARK  120  A    between atoms: _295  and  _298
REMARK  121  A    between atoms: _298  and  _299
REMARK  122  A    between atoms: _299  and  _300
REMARK  123  A    between atoms: _300  and  _301
REMARK  124  A    between atoms: _310  and  _312
REMARK  125  A    between atoms: _312  and  _313
REMARK  126  A    between atoms: _312  and  _315
REMARK  127  A    between atoms: _315  and  _316
REMARK  128  A    between atoms: _316  and  _317
REMARK  129  A    between atoms: _319  and  _321
REMARK  130  A    between atoms: _321  and  _322
REMARK  131  A    between atoms: _321  and  _324
REMARK  132  A    between atoms: _326  and  _328
REMARK  133  A    between atoms: _328  and  _329
REMARK  134  A    between atoms: _328  and  _331
REMARK  135  A    between atoms: _331  and  _332
REMARK  136  A    between atoms: _332  and  _333
REMARK  137  A    between atoms: _333  and  _334
REMARK  138  A    between atoms: _343  and  _345
REMARK  139  A    between atoms: _345  and  _346
REMARK  140  A    between atoms: _349  and  _351
REMARK  141  A    between atoms: _351  and  _352
REMARK  142  A    between atoms: _351  and  _354
REMARK  143  A    between atoms: _354  and  _355
REMARK  144  A    between atoms: _360  and  _361
REMARK  145  A    between atoms: _363  and  _365
REMARK  146  A    between atoms: _365  and  _366
REMARK  147  A    between atoms: _365  and  _368
REMARK  148  A    between atoms: _368  and  _369
REMARK  149  A    between atoms: _374  and  _376
REMARK  150  A    between atoms: _376  and  _377
REMARK  151  A    between atoms: _376  and  _379
REMARK  152  A    between atoms: _379  and  _380
REMARK  153  A    between atoms: _380  and  _381
REMARK  154  A    between atoms: _381  and  _382
REMARK  155  A    between atoms: _391  and  _393
REMARK  156  A    between atoms: _393  and  _394
REMARK  157  A    between atoms: _393  and  _396
REMARK  158  A    between atoms: _396  and  _397
REMARK  159  A    between atoms: _400  and  _402
REMARK  160  A    between atoms: _402  and  _403
REMARK  161  A    between atoms: _402  and  _405
REMARK  162  A    between atoms: _408  and  _410
REMARK  163  A    between atoms: _410  and  _411
REMARK  164  A    between atoms: _410  and  _413
REMARK  165  A    between atoms: _413  and  _414
REMARK  166  A    between atoms: _420  and  _422
REMARK  167  A    between atoms: _422  and  _423
REMARK  168  A    between atoms: _422  and  _425
REMARK  169  A    between atoms: _425  and  _426
REMARK  170  A    between atoms: _432  and  _434
REMARK  171  A    between atoms: _434  and  _435
REMARK  172  A    between atoms: _434  and  _437
REMARK  173  A    between atoms: _437  and  _438
REMARK  174  A    between atoms: _438  and  _439
REMARK  175  A    between atoms: _442  and  _444
REMARK  176  A    between atoms: _444  and  _445
REMARK  177  A    between atoms: _447  and  _449
REMARK  178  A    between atoms: _449  and  _450
REMARK  179  A    between atoms: _449  and  _452
REMARK  180  A    between atoms: _452  and  _453
REMARK  181  A    between atoms: _453  and  _454
REMARK  182  A    between atoms: _454  and  _455
REMARK  183  A    between atoms: _455  and  _456
REMARK  184  A    between atoms: _460  and  _462
REMARK  185  A    between atoms: _462  and  _463
REMARK  186  A    between atoms: _462  and  _465
REMARK  187  A    between atoms: _465  and  _466
REMARK  188  A    between atoms: _471  and  _472
REMARK  189  A    between atoms: _474  and  _476
REMARK  190  A    between atoms: _476  and  _477
REMARK  191  A    between atoms: _479  and  _481
REMARK  192  A    between atoms: _481  and  _482
REMARK  193  A    between atoms: _484  and  _486
REMARK  194  A    between atoms: _486  and  _487
REMARK  195  A    between atoms: _486  and  _489
REMARK  196  A    between atoms: _489  and  _490
REMARK  197  A    between atoms: _490  and  _491
REMARK  198  A    between atoms: _493  and  _495
REMARK  199  A    between atoms: _495  and  _496
REMARK  200  A    between atoms: _495  and  _498
REMARK  201  A    between atoms: _498  and  _499
REMARK  202  A    between atoms: _502  and  _504
REMARK  203  A    between atoms: _504  and  _505
REMARK  204  A    between atoms: _504  and  _507
REMARK  205  A    between atoms: _507  and  _508
REMARK  206  A    between atoms: _514  and  _516
REMARK  207  A    between atoms: _516  and  _517
REMARK  208  A    between atoms: _516  and  _519
REMARK  209  A    between atoms: _519  and  _520
REMARK  210  A    between atoms: _523  and  _525
REMARK  211  A    between atoms: _525  and  _526
REMARK  212  A    between atoms: _525  and  _528
REMARK  213  A    between atoms: _530  and  _532
REMARK  214  A    between atoms: _532  and  _533
REMARK  215  A    between atoms: _532  and  _535
REMARK  216  A    between atoms: _535  and  _536
REMARK  217  A    between atoms: _539  and  _541
REMARK  218  A    between atoms: _541  and  _542
REMARK  219  A    between atoms: _541  and  _544
REMARK  220  A    between atoms: _544  and  _545
REMARK  221  A    between atoms: _548  and  _550
REMARK  222  A    between atoms: _550  and  _551
REMARK  223  A    between atoms: _550  and  _553
REMARK  224  A    between atoms: _553  and  _554
REMARK  225  A    between atoms: _556  and  _558
REMARK  226  A    between atoms: _558  and  _559
REMARK  227  A    between atoms: _558  and  _561
REMARK  228  A    between atoms: _561  and  _562
REMARK  229  A    between atoms: _564  and  _566
REMARK  230  A    between atoms: _566  and  _567
REMARK  231  A    between atoms: _566  and  _569
REMARK  232  A    between atoms: _569  and  _570
REMARK  233  A    between atoms: _573  and  _575
REMARK  234  A    between atoms: _575  and  _576
REMARK  235  A    between atoms: _575  and  _578
REMARK  236  A    between atoms: _578  and  _579
REMARK  237  A    between atoms: _585  and  _587
REMARK  238  A    between atoms: _587  and  _588
REMARK  239  A    between atoms: _587  and  _590
REMARK  240  A    between atoms: _590  and  _591
REMARK  241  A    between atoms: _594  and  _596
REMARK  242  A    between atoms: _596  and  _597
REMARK  243  A    between atoms: _596  and  _599
REMARK  244  A    between atoms: _599  and  _600
REMARK  245  A    between atoms: _606  and  _608
REMARK  246  A    between atoms: _608  and  _609
REMARK  247  A    between atoms: _608  and  _611
REMARK  248  A    between atoms: _611  and  _612
REMARK  249  A    between atoms: _614  and  _616
REMARK  250  A    between atoms: _616  and  _617
REMARK  251  A    between atoms: _616  and  _619
REMARK  252  A    between atoms: _619  and  _620
REMARK  253  A    between atoms: _625  and  _627
REMARK  254  A    between atoms: _627  and  _628
REMARK  255  A    between atoms: _627  and  _630
REMARK  256  A    between atoms: _630  and  _631
REMARK  257  A    between atoms: _633  and  _635
REMARK  258  A    between atoms: _635  and  _636
REMARK  259  A    between atoms: _635  and  _638
REMARK  260  A    between atoms: _638  and  _639
REMARK  261  A    between atoms: _639  and  _640
REMARK  262  A    between atoms: _643  and  _645
REMARK  263  A    between atoms: _645  and  _646
REMARK  264  A    between atoms: _645  and  _648
REMARK  265  A    between atoms: _648  and  _649
REMARK  266  A    between atoms: _652  and  _654
REMARK  267  A    between atoms: _654  and  _655
REMARK  268  A    between atoms: _654  and  _657
REMARK  269  A    between atoms: _657  and  _658
REMARK  270  A    between atoms: _661  and  _663
REMARK  271  A    between atoms: _663  and  _664
REMARK  272  A    between atoms: _663  and  _666
REMARK  273  A    between atoms: _668  and  _670
REMARK  274  A    between atoms: _670  and  _671
REMARK  275  A    between atoms: _670  and  _673
REMARK  276  A    between atoms: _673  and  _674
REMARK  277  A    between atoms: _674  and  _675
REMARK  278  A    between atoms: _680  and  _682
REMARK  279  A    between atoms: _682  and  _683
REMARK  280  A    between atoms: _682  and  _685
REMARK  281  A    between atoms: _685  and  _686
REMARK  282  A    between atoms: _691  and  _693
REMARK  283  A    between atoms: _693  and  _694
REMARK  284  A    between atoms: _693  and  _696
REMARK  285  A    between atoms: _699  and  _701
REMARK  286  A    between atoms: _701  and  _702
REMARK  287  A    between atoms: _701  and  _704
REMARK  288  A    between atoms: _704  and  _705
REMARK  289  A    between atoms: _705  and  _706
REMARK  290  A    between atoms: _706  and  _707
REMARK  291  A    between atoms: _716  and  _718
REMARK  292  A    between atoms: _718  and  _719
REMARK  293  A    between atoms: _718  and  _721
REMARK  294  A    between atoms: _721  and  _722
REMARK  295  A    between atoms: _725  and  _727
REMARK  296  A    between atoms: _727  and  _728
REMARK  297  A    between atoms: _727  and  _730
REMARK  298  A    between atoms: _730  and  _731
REMARK  299  A    between atoms: _737  and  _739
REMARK  300  A    between atoms: _739  and  _740
REMARK  301  A    between atoms: _739  and  _742
REMARK  302  A    between atoms: _742  and  _743
REMARK  303  A    between atoms: _748  and  _749
REMARK  304  A    between atoms: _751  and  _753
REMARK  305  A    between atoms: _753  and  _754
REMARK  306  A    between atoms: _753  and  _756
REMARK  307  A    between atoms: _756  and  _757
REMARK                            x       y       z     vdW  Elec       q    Type
REMARK                         _______ _______ _______ _____ _____    ______ ____
ROOT
ATOM      1  O   HOH     1     -17.081  30.713  15.580  0.00  0.00    +0.000 OA
ENDROOT
TORSDOF 0
REMARK  Name = ../refined-set-2016/4ymq/4ymq_pocket.pdb
REMARK  307 active torsions:
REMARK  status: ('A' for Active; 'I' for Inactive)
REMARK    1  A    between atoms: _1  and  _3
REMARK    2  A    between atoms: _3  and  _4
REMARK    3  A    between atoms: _3  and  _6
REMARK    4  A    between atoms: _6  and  _7
REMARK    5  A    between atoms: _12  and  _13
REMARK    6  A    between atoms: _15  and  _17
REMARK    7  A    between atoms: _17  and  _18
REMARK    8  A    between atoms: _17  and  _20
REMARK    9  A    between atoms: _20  and  _21
REMARK   10  A    between atoms: _24  and  _26
REMARK   11  A    between atoms: _26  and  _27
REMARK   12  A    between atoms: _26  and  _29
REMARK   13  A    between atoms: _31  and  _33
REMARK   14  A    between atoms: _33  and  _34
REMARK   15  A    between atoms: _33  and  _36
REMARK   16  A    between atoms: _36  and  _37
REMARK   17  A    between atoms: _37  and  _38
REMARK   18  A    between atoms: _43  and  _45
REMARK   19  A    between atoms: _45  and  _46
REMARK   20  A    between atoms: _45  and  _48
REMARK   21  A    between atoms: _48  and  _49
REMARK   22  A    between atoms: _52  and  _54
REMARK   23  A    between atoms: _54  and  _55
REMARK   24  A    between atoms: _54  and  _57
REMARK   25  A    between atoms: _57  and  _58
REMARK   26  A    between atoms: _58  and  _59
REMARK   27  A    between atoms: _59  and  _60
REMARK   28  A    between atoms: _69  and  _71
REMARK   29  A    between atoms: _71  and  _72
REMARK   30  A    between atoms: _71  and  _74
REMARK   31  A    between atoms: _74  and  _75
REMARK   32  A    between atoms: _78  and  _80
REMARK   33  A    between atoms: _80  and  _81
REMARK   34  A    between atoms: _80  and  _83
REMARK   35  A    between atoms: _83  and  _84
REMARK   36  A    between atoms: _87  and  _89
REMARK   37  A    between atoms: _89  and  _90
REMARK   38  A    between atoms: _89  and  _92
REMARK   39  A    between atoms: _92  and  _93
REMARK   40  A    between atoms: _99  and  _101
REMARK   41  A    between atoms: _101  and  _102
REMARK   42  A    between atoms: _101  and  _104
REMARK   43  A    between atoms: _104  and  _105
REMARK   44  A    between atoms: _105  and  _106
REMARK   45  A    between atoms: _108  and  _110
REMARK   46  A    between atoms: _110  and  _111
REMARK   47  A    between atoms: _110  and  _113
REMARK   48  A    between atoms: _113  and  _114
REMARK   49  A    between atoms: _124  and  _126
REMARK   50  A    between atoms: _126  and  _127
REMARK   51  A    between atoms: _126  and  _129
REMARK   52  A    between atoms: _129  and  _130
REMARK   53  A    between atoms: _130  and  _131
REMARK   54  A    between atoms: _134  and  _136
REMARK   55  A    between atoms: _136  and  _137
REMARK   56  A    between atoms: _136  and  _139
REMARK   57  A    between atoms: _139  and  _140
REMARK   58  A    between atoms: _140  and  _141
REMARK   59  A    between atoms: _141  and  _142
REMARK   60  A    between atoms: _151  and  _153
REMARK   61  A    between atoms: _153  and  _154
REMARK   62  A    between atoms: _153  and  _156
REMARK   63  A    between atoms: _158  and  _160
REMARK   64  A    between atoms: _160  and  _161
REMARK   65  A    between atoms: _164  and  _166
REMARK   66  A    between atoms: _166  and  _167
REMARK   67  A    between atoms: _166  and  _169
REMARK   68  A    between atoms: _169  and  _170
REMARK   69  A    between atoms: _175  and  _177
REMARK   70  A    between atoms: _177  and  _178
REMARK   71  A    between atoms: _177  and  _180
REMARK   72  A    between atoms: _180  and  _181
REMARK   73  A    between atoms: _186  and  _188
REMARK   74  A    between atoms: _188  and  _189
REMARK   75  A    between atoms: _188  and  _191
REMARK   76  A    between atoms: _191  and  _192
REMARK   77  A    between atoms: _195  and  _197
REMARK   78  A    between atoms: _197  and  _198
REMARK   79  A    between atoms: _197  and  _200
REMARK   80  A    between atoms: _200  and  _201
REMARK   81  A    between atoms: _204  and  _206
REMARK   82  A    between atoms: _206  and  _207
REMARK   83  A    between atoms: _206  and  _209
REMARK   84  A    between atoms: _209  and  _210
REMARK   85  A    between atoms: _210  and  _211
REMARK   86  A    between atoms: _214  and  _216
REMARK   87  A    between atoms: _216  and  _217
REMARK   88  A    between atoms: _220  and  _222
REMARK   89  A    between atoms: _222  and  _223
REMARK   90  A    between atoms: _222  and  _225
REMARK   91  A    between atoms: _225  and  _226
REMARK   92  A    between atoms: _229  and  _231
REMARK   93  A    between atoms: _231  and  _232
REMARK   94  A    between atoms: _231  and  _234
REMARK   95  A    between atoms: _234  and  _235
REMARK   96  A    between atoms: _240  and  _241
REMARK   97  A    between atoms: _243  and  _245
REMARK   98  A    between atoms: _245  and  _246
REMARK   99  A    between atoms: _245  and  _248
REMARK  100  A    between atoms: _251  and  _253
REMARK  101  A    between atoms: _253  and  _254
REMARK  102  A    between atoms: _253  and  _256
REMARK  103  A    between atoms: _256  and  _257
REMARK  104  A    between atoms: _257  and  _258
REMARK  105  A    between atoms: _260  and  _262
REMARK  106  A    between atoms: _262  and  _263
REMARK  107  A    between atoms: _262  and  _265
REMARK  108  A    between atoms: _268  and  _270
REMARK  109  A    between atoms: _270  and  _271
REMARK  110  A    between atoms: _270  and  _273
REMARK  111  A    between atoms: _276  and  _278
REMARK  112  A    between atoms: _278  and  _279
REMARK  113  A    between atoms: _278  and  _281
REMARK  114  A    between atoms: _281  and  _282
REMARK  115  A    between atoms: _285  and  _287
REMARK  116  A    between atoms: _287  and  _288
REMARK  117  A    between atoms: _287  and  _290
REMARK  118  A    between atoms: _293  and  _295
REMARK  119  A    between atoms: _295  and  _296
REMARK  120  A    between atoms: _295  and  _298
REMARK  121  A    between atoms: _298  and  _299
REMARK  122  A    between atoms: _299  and  _300
REMARK  123  A    between atoms: _300  and  _301
REMARK  124  A    between atoms: _310  and  _312
REMARK  125  A    between atoms: _312  and  _313
REMARK  126  A    between atoms: _312  and  _315
REMARK  127  A    between atoms: _315  and  _316
REMARK  128  A    between atoms: _316  and  _317
REMARK  129  A    between atoms: _319  and  _321
REMARK  130  A    between atoms: _321  and  _322
REMARK  131  A    between atoms: _321  and  _324
REMARK  132  A    between atoms: _326  and  _328
REMARK  133  A    between atoms: _328  and  _329
REMARK  134  A    between atoms: _328  and  _331
REMARK  135  A    between atoms: _331  and  _332
REMARK  136  A    between atoms: _332  and  _333
REMARK  137  A    between atoms: _333  and  _334
REMARK  138  A    between atoms: _343  and  _345
REMARK  139  A    between atoms: _345  and  _346
REMARK  140  A    between atoms: _349  and  _351
REMARK  141  A    between atoms: _351  and  _352
REMARK  142  A    between atoms: _351  and  _354
REMARK  143  A    between atoms: _354  and  _355
REMARK  144  A    between atoms: _360  and  _361
REMARK  145  A    between atoms: _363  and  _365
REMARK  146  A    between atoms: _365  and  _366
REMARK  147  A    between atoms: _365  and  _368
REMARK  148  A    between atoms: _368  and  _369
REMARK  149  A    between atoms: _374  and  _376
REMARK  150  A    between atoms: _376  and  _377
REMARK  151  A    between atoms: _376  and  _379
REMARK  152  A    between atoms: _379  and  _380
REMARK  153  A    between atoms: _380  and  _381
REMARK  154  A    between atoms: _381  and  _382
REMARK  155  A    between atoms: _391  and  _393
REMARK  156  A    between atoms: _393  and  _394
REMARK  157  A    between atoms: _393  and  _396
REMARK  158  A    between atoms: _396  and  _397
REMARK  159  A    between atoms: _400  and  _402
REMARK  160  A    between atoms: _402  and  _403
REMARK  161  A    between atoms: _402  and  _405
REMARK  162  A    between atoms: _408  and  _410
REMARK  163  A    between atoms: _410  and  _411
REMARK  164  A    between atoms: _410  and  _413
REMARK  165  A    between atoms: _413  and  _414
REMARK  166  A    between atoms: _420  and  _422
REMARK  167  A    between atoms: _422  and  _423
REMARK  168  A    between atoms: _422  and  _425
REMARK  169  A    between atoms: _425  and  _426
REMARK  170  A    between atoms: _432  and  _434
REMARK  171  A    between atoms: _434  and  _435
REMARK  172  A    between atoms: _434  and  _437
REMARK  173  A    between atoms: _437  and  _438
REMARK  174  A    between atoms: _438  and  _439
REMARK  175  A    between atoms: _442  and  _444
REMARK  176  A    between atoms: _444  and  _445
REMARK  177  A    between atoms: _447  and  _449
REMARK  178  A    between atoms: _449  and  _450
REMARK  179  A    between atoms: _449  and  _452
REMARK  180  A    between atoms: _452  and  _453
REMARK  181  A    between atoms: _453  and  _454
REMARK  182  A    between atoms: _454  and  _455
REMARK  183  A    between atoms: _455  and  _456
REMARK  184  A    between atoms: _460  and  _462
REMARK  185  A    between atoms: _462  and  _463
REMARK  186  A    between atoms: _462  and  _465
REMARK  187  A    between atoms: _465  and  _466
REMARK  188  A    between atoms: _471  and  _472
REMARK  189  A    between atoms: _474  and  _476
REMARK  190  A    between atoms: _476  and  _477
REMARK  191  A    between atoms: _479  and  _481
REMARK  192  A    between atoms: _481  and  _482
REMARK  193  A    between atoms: _484  and  _486
REMARK  194  A    between atoms: _486  and  _487
REMARK  195  A    between atoms: _486  and  _489
REMARK  196  A    between atoms: _489  and  _490
REMARK  197  A    between atoms: _490  and  _491
REMARK  198  A    between atoms: _493  and  _495
REMARK  199  A    between atoms: _495  and  _496
REMARK  200  A    between atoms: _495  and  _498
REMARK  201  A    between atoms: _498  and  _499
REMARK  202  A    between atoms: _502  and  _504
REMARK  203  A    between atoms: _504  and  _505
REMARK  204  A    between atoms: _504  and  _507
REMARK  205  A    between atoms: _507  and  _508
REMARK  206  A    between atoms: _514  and  _516
REMARK  207  A    between atoms: _516  and  _517
REMARK  208  A    between atoms: _516  and  _519
REMARK  209  A    between atoms: _519  and  _520
REMARK  210  A    between atoms: _523  and  _525
REMARK  211  A    between atoms: _525  and  _526
REMARK  212  A    between atoms: _525  and  _528
REMARK  213  A    between atoms: _530  and  _532
REMARK  214  A    between atoms: _532  and  _533
REMARK  215  A    between atoms: _532  and  _535
REMARK  216  A    between atoms: _535  and  _536
REMARK  217  A    between atoms: _539  and  _541
REMARK  218  A    between atoms: _541  and  _542
REMARK  219  A    between atoms: _541  and  _544
REMARK  220  A    between atoms: _544  and  _545
REMARK  221  A    between atoms: _548  and  _550
REMARK  222  A    between atoms: _550  and  _551
REMARK  223  A    between atoms: _550  and  _553
REMARK  224  A    between atoms: _553  and  _554
REMARK  225  A    between atoms: _556  and  _558
REMARK  226  A    between atoms: _558  and  _559
REMARK  227  A    between atoms: _558  and  _561
REMARK  228  A    between atoms: _561  and  _562
REMARK  229  A    between atoms: _564  and  _566
REMARK  230  A    between atoms: _566  and  _567
REMARK  231  A    between atoms: _566  and  _569
REMARK  232  A    between atoms: _569  and  _570
REMARK  233  A    between atoms: _573  and  _575
REMARK  234  A    between atoms: _575  and  _576
REMARK  235  A    between atoms: _575  and  _578
REMARK  236  A    between atoms: _578  and  _579
REMARK  237  A    between atoms: _585  and  _587
REMARK  238  A    between atoms: _587  and  _588
REMARK  239  A    between atoms: _587  and  _590
REMARK  240  A    between atoms: _590  and  _591
REMARK  241  A    between atoms: _594  and  _596
REMARK  242  A    between atoms: _596  and  _597
REMARK  243  A    between atoms: _596  and  _599
REMARK  244  A    between atoms: _599  and  _600
REMARK  245  A    between atoms: _606  and  _608
REMARK  246  A    between atoms: _608  and  _609
REMARK  247  A    between atoms: _608  and  _611
REMARK  248  A    between atoms: _611  and  _612
REMARK  249  A    between atoms: _614  and  _616
REMARK  250  A    between atoms: _616  and  _617
REMARK  251  A    between atoms: _616  and  _619
REMARK  252  A    between atoms: _619  and  _620
REMARK  253  A    between atoms: _625  and  _627
REMARK  254  A    between atoms: _627  and  _628
REMARK  255  A    between atoms: _627  and  _630
REMARK  256  A    between atoms: _630  and  _631
REMARK  257  A    between atoms: _633  and  _635
REMARK  258  A    between atoms: _635  and  _636
REMARK  259  A    between atoms: _635  and  _638
REMARK  260  A    between atoms: _638  and  _639
REMARK  261  A    between atoms: _639  and  _640
REMARK  262  A    between atoms: _643  and  _645
REMARK  263  A    between atoms: _645  and  _646
REMARK  264  A    between atoms: _645  and  _648
REMARK  265  A    between atoms: _648  and  _649
REMARK  266  A    between atoms: _652  and  _654
REMARK  267  A    between atoms: _654  and  _655
REMARK  268  A    between atoms: _654  and  _657
REMARK  269  A    between atoms: _657  and  _658
REMARK  270  A    between atoms: _661  and  _663
REMARK  271  A    between atoms: _663  and  _664
REMARK  272  A    between atoms: _663  and  _666
REMARK  273  A    between atoms: _668  and  _670
REMARK  274  A    between atoms: _670  and  _671
REMARK  275  A    between atoms: _670  and  _673
REMARK  276  A    between atoms: _673  and  _674
REMARK  277  A    between atoms: _674  and  _675
REMARK  278  A    between atoms: _680  and  _682
REMARK  279  A    between atoms: _682  and  _683
REMARK  280  A    between atoms: _682  and  _685
REMARK  281  A    between atoms: _685  and  _686
REMARK  282  A    between atoms: _691  and  _693
REMARK  283  A    between atoms: _693  and  _694
REMARK  284  A    between atoms: _693  and  _696
REMARK  285  A    between atoms: _699  and  _701
REMARK  286  A    between atoms: _701  and  _702
REMARK  287  A    between atoms: _701  and  _704
REMARK  288  A    between atoms: _704  and  _705
REMARK  289  A    between atoms: _705  and  _706
REMARK  290  A    between atoms: _706  and  _707
REMARK  291  A    between atoms: _716  and  _718
REMARK  292  A    between atoms: _718  and  _719
REMARK  293  A    between atoms: _718  and  _721
REMARK  294  A    between atoms: _721  and  _722
REMARK  295  A    between atoms: _725  and  _727
REMARK  296  A    between atoms: _727  and  _728
REMARK  297  A    between atoms: _727  and  _730
REMARK  298  A    between atoms: _730  and  _731
REMARK  299  A    between atoms: _737  and  _739
REMARK  300  A    between atoms: _739  and  _740
REMARK  301  A    between atoms: _739  and  _742
REMARK  302  A    between atoms: _742  and  _743
REMARK  303  A    between atoms: _748  and  _749
REMARK  304  A    between atoms: _751  and  _753
REMARK  305  A    between atoms: _753  and  _754
REMARK  306  A    between atoms: _753  and  _756
REMARK  307  A    between atoms: _756  and  _757
REMARK                            x       y       z     vdW  Elec       q    Type
REMARK                         _______ _______ _______ _____ _____    ______ ____
ROOT
ATOM      1  O   HOH     1      -2.880  27.498   8.966  0.00  0.00    +0.000 OA
ENDROOT
TORSDOF 0
REMARK  Name = ../refined-set-2016/4ymq/4ymq_pocket.pdb
REMARK  307 active torsions:
REMARK  status: ('A' for Active; 'I' for Inactive)
REMARK    1  A    between atoms: _1  and  _3
REMARK    2  A    between atoms: _3  and  _4
REMARK    3  A    between atoms: _3  and  _6
REMARK    4  A    between atoms: _6  and  _7
REMARK    5  A    between atoms: _12  and  _13
REMARK    6  A    between atoms: _15  and  _17
REMARK    7  A    between atoms: _17  and  _18
REMARK    8  A    between atoms: _17  and  _20
REMARK    9  A    between atoms: _20  and  _21
REMARK   10  A    between atoms: _24  and  _26
REMARK   11  A    between atoms: _26  and  _27
REMARK   12  A    between atoms: _26  and  _29
REMARK   13  A    between atoms: _31  and  _33
REMARK   14  A    between atoms: _33  and  _34
REMARK   15  A    between atoms: _33  and  _36
REMARK   16  A    between atoms: _36  and  _37
REMARK   17  A    between atoms: _37  and  _38
REMARK   18  A    between atoms: _43  and  _45
REMARK   19  A    between atoms: _45  and  _46
REMARK   20  A    between atoms: _45  and  _48
REMARK   21  A    between atoms: _48  and  _49
REMARK   22  A    between atoms: _52  and  _54
REMARK   23  A    between atoms: _54  and  _55
REMARK   24  A    between atoms: _54  and  _57
REMARK   25  A    between atoms: _57  and  _58
REMARK   26  A    between atoms: _58  and  _59
REMARK   27  A    between atoms: _59  and  _60
REMARK   28  A    between atoms: _69  and  _71
REMARK   29  A    between atoms: _71  and  _72
REMARK   30  A    between atoms: _71  and  _74
REMARK   31  A    between atoms: _74  and  _75
REMARK   32  A    between atoms: _78  and  _80
REMARK   33  A    between atoms: _80  and  _81
REMARK   34  A    between atoms: _80  and  _83
REMARK   35  A    between atoms: _83  and  _84
REMARK   36  A    between atoms: _87  and  _89
REMARK   37  A    between atoms: _89  and  _90
REMARK   38  A    between atoms: _89  and  _92
REMARK   39  A    between atoms: _92  and  _93
REMARK   40  A    between atoms: _99  and  _101
REMARK   41  A    between atoms: _101  and  _102
REMARK   42  A    between atoms: _101  and  _104
REMARK   43  A    between atoms: _104  and  _105
REMARK   44  A    between atoms: _105  and  _106
REMARK   45  A    between atoms: _108  and  _110
REMARK   46  A    between atoms: _110  and  _111
REMARK   47  A    between atoms: _110  and  _113
REMARK   48  A    between atoms: _113  and  _114
REMARK   49  A    between atoms: _124  and  _126
REMARK   50  A    between atoms: _126  and  _127
REMARK   51  A    between atoms: _126  and  _129
REMARK   52  A    between atoms: _129  and  _130
REMARK   53  A    between atoms: _130  and  _131
REMARK   54  A    between atoms: _134  and  _136
REMARK   55  A    between atoms: _136  and  _137
REMARK   56  A    between atoms: _136  and  _139
REMARK   57  A    between atoms: _139  and  _140
REMARK   58  A    between atoms: _140  and  _141
REMARK   59  A    between atoms: _141  and  _142
REMARK   60  A    between atoms: _151  and  _153
REMARK   61  A    between atoms: _153  and  _154
REMARK   62  A    between atoms: _153  and  _156
REMARK   63  A    between atoms: _158  and  _160
REMARK   64  A    between atoms: _160  and  _161
REMARK   65  A    between atoms: _164  and  _166
REMARK   66  A    between atoms: _166  and  _167
REMARK   67  A    between atoms: _166  and  _169
REMARK   68  A    between atoms: _169  and  _170
REMARK   69  A    between atoms: _175  and  _177
REMARK   70  A    between atoms: _177  and  _178
REMARK   71  A    between atoms: _177  and  _180
REMARK   72  A    between atoms: _180  and  _181
REMARK   73  A    between atoms: _186  and  _188
REMARK   74  A    between atoms: _188  and  _189
REMARK   75  A    between atoms: _188  and  _191
REMARK   76  A    between atoms: _191  and  _192
REMARK   77  A    between atoms: _195  and  _197
REMARK   78  A    between atoms: _197  and  _198
REMARK   79  A    between atoms: _197  and  _200
REMARK   80  A    between atoms: _200  and  _201
REMARK   81  A    between atoms: _204  and  _206
REMARK   82  A    between atoms: _206  and  _207
REMARK   83  A    between atoms: _206  and  _209
REMARK   84  A    between atoms: _209  and  _210
REMARK   85  A    between atoms: _210  and  _211
REMARK   86  A    between atoms: _214  and  _216
REMARK   87  A    between atoms: _216  and  _217
REMARK   88  A    between atoms: _220  and  _222
REMARK   89  A    between atoms: _222  and  _223
REMARK   90  A    between atoms: _222  and  _225
REMARK   91  A    between atoms: _225  and  _226
REMARK   92  A    between atoms: _229  and  _231
REMARK   93  A    between atoms: _231  and  _232
REMARK   94  A    between atoms: _231  and  _234
REMARK   95  A    between atoms: _234  and  _235
REMARK   96  A    between atoms: _240  and  _241
REMARK   97  A    between atoms: _243  and  _245
REMARK   98  A    between atoms: _245  and  _246
REMARK   99  A    between atoms: _245  and  _248
REMARK  100  A    between atoms: _251  and  _253
REMARK  101  A    between atoms: _253  and  _254
REMARK  102  A    between atoms: _253  and  _256
REMARK  103  A    between atoms: _256  and  _257
REMARK  104  A    between atoms: _257  and  _258
REMARK  105  A    between atoms: _260  and  _262
REMARK  106  A    between atoms: _262  and  _263
REMARK  107  A    between atoms: _262  and  _265
REMARK  108  A    between atoms: _268  and  _270
REMARK  109  A    between atoms: _270  and  _271
REMARK  110  A    between atoms: _270  and  _273
REMARK  111  A    between atoms: _276  and  _278
REMARK  112  A    between atoms: _278  and  _279
REMARK  113  A    between atoms: _278  and  _281
REMARK  114  A    between atoms: _281  and  _282
REMARK  115  A    between atoms: _285  and  _287
REMARK  116  A    between atoms: _287  and  _288
REMARK  117  A    between atoms: _287  and  _290
REMARK  118  A    between atoms: _293  and  _295
REMARK  119  A    between atoms: _295  and  _296
REMARK  120  A    between atoms: _295  and  _298
REMARK  121  A    between atoms: _298  and  _299
REMARK  122  A    between atoms: _299  and  _300
REMARK  123  A    between atoms: _300  and  _301
REMARK  124  A    between atoms: _310  and  _312
REMARK  125  A    between atoms: _312  and  _313
REMARK  126  A    between atoms: _312  and  _315
REMARK  127  A    between atoms: _315  and  _316
REMARK  128  A    between atoms: _316  and  _317
REMARK  129  A    between atoms: _319  and  _321
REMARK  130  A    between atoms: _321  and  _322
REMARK  131  A    between atoms: _321  and  _324
REMARK  132  A    between atoms: _326  and  _328
REMARK  133  A    between atoms: _328  and  _329
REMARK  134  A    between atoms: _328  and  _331
REMARK  135  A    between atoms: _331  and  _332
REMARK  136  A    between atoms: _332  and  _333
REMARK  137  A    between atoms: _333  and  _334
REMARK  138  A    between atoms: _343  and  _345
REMARK  139  A    between atoms: _345  and  _346
REMARK  140  A    between atoms: _349  and  _351
REMARK  141  A    between atoms: _351  and  _352
REMARK  142  A    between atoms: _351  and  _354
REMARK  143  A    between atoms: _354  and  _355
REMARK  144  A    between atoms: _360  and  _361
REMARK  145  A    between atoms: _363  and  _365
REMARK  146  A    between atoms: _365  and  _366
REMARK  147  A    between atoms: _365  and  _368
REMARK  148  A    between atoms: _368  and  _369
REMARK  149  A    between atoms: _374  and  _376
REMARK  150  A    between atoms: _376  and  _377
REMARK  151  A    between atoms: _376  and  _379
REMARK  152  A    between atoms: _379  and  _380
REMARK  153  A    between atoms: _380  and  _381
REMARK  154  A    between atoms: _381  and  _382
REMARK  155  A    between atoms: _391  and  _393
REMARK  156  A    between atoms: _393  and  _394
REMARK  157  A    between atoms: _393  and  _396
REMARK  158  A    between atoms: _396  and  _397
REMARK  159  A    between atoms: _400  and  _402
REMARK  160  A    between atoms: _402  and  _403
REMARK  161  A    between atoms: _402  and  _405
REMARK  162  A    between atoms: _408  and  _410
REMARK  163  A    between atoms: _410  and  _411
REMARK  164  A    between atoms: _410  and  _413
REMARK  165  A    between atoms: _413  and  _414
REMARK  166  A    between atoms: _420  and  _422
REMARK  167  A    between atoms: _422  and  _423
REMARK  168  A    between atoms: _422  and  _425
REMARK  169  A    between atoms: _425  and  _426
REMARK  170  A    between atoms: _432  and  _434
REMARK  171  A    between atoms: _434  and  _435
REMARK  172  A    between atoms: _434  and  _437
REMARK  173  A    between atoms: _437  and  _438
REMARK  174  A    between atoms: _438  and  _439
REMARK  175  A    between atoms: _442  and  _444
REMARK  176  A    between atoms: _444  and  _445
REMARK  177  A    between atoms: _447  and  _449
REMARK  178  A    between atoms: _449  and  _450
REMARK  179  A    between atoms: _449  and  _452
REMARK  180  A    between atoms: _452  and  _453
REMARK  181  A    between atoms: _453  and  _454
REMARK  182  A    between atoms: _454  and  _455
REMARK  183  A    between atoms: _455  and  _456
REMARK  184  A    between atoms: _460  and  _462
REMARK  185  A    between atoms: _462  and  _463
REMARK  186  A    between atoms: _462  and  _465
REMARK  187  A    between atoms: _465  and  _466
REMARK  188  A    between atoms: _471  and  _472
REMARK  189  A    between atoms: _474  and  _476
REMARK  190  A    between atoms: _476  and  _477
REMARK  191  A    between atoms: _479  and  _481
REMARK  192  A    between atoms: _481  and  _482
REMARK  193  A    between atoms: _484  and  _486
REMARK  194  A    between atoms: _486  and  _487
REMARK  195  A    between atoms: _486  and  _489
REMARK  196  A    between atoms: _489  and  _490
REMARK  197  A    between atoms: _490  and  _491
REMARK  198  A    between atoms: _493  and  _495
REMARK  199  A    between atoms: _495  and  _496
REMARK  200  A    between atoms: _495  and  _498
REMARK  201  A    between atoms: _498  and  _499
REMARK  202  A    between atoms: _502  and  _504
REMARK  203  A    between atoms: _504  and  _505
REMARK  204  A    between atoms: _504  and  _507
REMARK  205  A    between atoms: _507  and  _508
REMARK  206  A    between atoms: _514  and  _516
REMARK  207  A    between atoms: _516  and  _517
REMARK  208  A    between atoms: _516  and  _519
REMARK  209  A    between atoms: _519  and  _520
REMARK  210  A    between atoms: _523  and  _525
REMARK  211  A    between atoms: _525  and  _526
REMARK  212  A    between atoms: _525  and  _528
REMARK  213  A    between atoms: _530  and  _532
REMARK  214  A    between atoms: _532  and  _533
REMARK  215  A    between atoms: _532  and  _535
REMARK  216  A    between atoms: _535  and  _536
REMARK  217  A    between atoms: _539  and  _541
REMARK  218  A    between atoms: _541  and  _542
REMARK  219  A    between atoms: _541  and  _544
REMARK  220  A    between atoms: _544  and  _545
REMARK  221  A    between atoms: _548  and  _550
REMARK  222  A    between atoms: _550  and  _551
REMARK  223  A    between atoms: _550  and  _553
REMARK  224  A    between atoms: _553  and  _554
REMARK  225  A    between atoms: _556  and  _558
REMARK  226  A    between atoms: _558  and  _559
REMARK  227  A    between atoms: _558  and  _561
REMARK  228  A    between atoms: _561  and  _562
REMARK  229  A    between atoms: _564  and  _566
REMARK  230  A    between atoms: _566  and  _567
REMARK  231  A    between atoms: _566  and  _569
REMARK  232  A    between atoms: _569  and  _570
REMARK  233  A    between atoms: _573  and  _575
REMARK  234  A    between atoms: _575  and  _576
REMARK  235  A    between atoms: _575  and  _578
REMARK  236  A    between atoms: _578  and  _579
REMARK  237  A    between atoms: _585  and  _587
REMARK  238  A    between atoms: _587  and  _588
REMARK  239  A    between atoms: _587  and  _590
REMARK  240  A    between atoms: _590  and  _591
REMARK  241  A    between atoms: _594  and  _596
REMARK  242  A    between atoms: _596  and  _597
REMARK  243  A    between atoms: _596  and  _599
REMARK  244  A    between atoms: _599  and  _600
REMARK  245  A    between atoms: _606  and  _608
REMARK  246  A    between atoms: _608  and  _609
REMARK  247  A    between atoms: _608  and  _611
REMARK  248  A    between atoms: _611  and  _612
REMARK  249  A    between atoms: _614  and  _616
REMARK  250  A    between atoms: _616  and  _617
REMARK  251  A    between atoms: _616  and  _619
REMARK  252  A    between atoms: _619  and  _620
REMARK  253  A    between atoms: _625  and  _627
REMARK  254  A    between atoms: _627  and  _628
REMARK  255  A    between atoms: _627  and  _630
REMARK  256  A    between atoms: _630  and  _631
REMARK  257  A    between atoms: _633  and  _635
REMARK  258  A    between atoms: _635  and  _636
REMARK  259  A    between atoms: _635  and  _638
REMARK  260  A    between atoms: _638  and  _639
REMARK  261  A    between atoms: _639  and  _640
REMARK  262  A    between atoms: _643  and  _645
REMARK  263  A    between atoms: _645  and  _646
REMARK  264  A    between atoms: _645  and  _648
REMARK  265  A    between atoms: _648  and  _649
REMARK  266  A    between atoms: _652  and  _654
REMARK  267  A    between atoms: _654  and  _655
REMARK  268  A    between atoms: _654  and  _657
REMARK  269  A    between atoms: _657  and  _658
REMARK  270  A    between atoms: _661  and  _663
REMARK  271  A    between atoms: _663  and  _664
REMARK  272  A    between atoms: _663  and  _666
REMARK  273  A    between atoms: _668  and  _670
REMARK  274  A    between atoms: _670  and  _671
REMARK  275  A    between atoms: _670  and  _673
REMARK  276  A    between atoms: _673  and  _674
REMARK  277  A    between atoms: _674  and  _675
REMARK  278  A    between atoms: _680  and  _682
REMARK  279  A    between atoms: _682  and  _683
REMARK  280  A    between atoms: _682  and  _685
REMARK  281  A    between atoms: _685  and  _686
REMARK  282  A    between atoms: _691  and  _693
REMARK  283  A    between atoms: _693  and  _694
REMARK  284  A    between atoms: _693  and  _696
REMARK  285  A    between atoms: _699  and  _701
REMARK  286  A    between atoms: _701  and  _702
REMARK  287  A    between atoms: _701  and  _704
REMARK  288  A    between atoms: _704  and  _705
REMARK  289  A    between atoms: _705  and  _706
REMARK  290  A    between atoms: _706  and  _707
REMARK  291  A    between atoms: _716  and  _718
REMARK  292  A    between atoms: _718  and  _719
REMARK  293  A    between atoms: _718  and  _721
REMARK  294  A    between atoms: _721  and  _722
REMARK  295  A    between atoms: _725  and  _727
REMARK  296  A    between atoms: _727  and  _728
REMARK  297  A    between atoms: _727  and  _730
REMARK  298  A    between atoms: _730  and  _731
REMARK  299  A    between atoms: _737  and  _739
REMARK  300  A    between atoms: _739  and  _740
REMARK  301  A    between atoms: _739  and  _742
REMARK  302  A    between atoms: _742  and  _743
REMARK  303  A    between atoms: _748  and  _749
REMARK  304  A    between atoms: _751  and  _753
REMARK  305  A    between atoms: _753  and  _754
REMARK  306  A    between atoms: _753  and  _756
REMARK  307  A    between atoms: _756  and  _757
REMARK                            x       y       z     vdW  Elec       q    Type
REMARK                         _______ _______ _______ _____ _____    ______ ____
ROOT
ATOM      1  O   HOH     1      -3.289  25.566  11.267  0.00  0.00    +0.000 OA
ENDROOT
TORSDOF 0
REMARK  Name = ../refined-set-2016/4ymq/4ymq_pocket.pdb
REMARK  307 active torsions:
REMARK  status: ('A' for Active; 'I' for Inactive)
REMARK    1  A    between atoms: _1  and  _3
REMARK    2  A    between atoms: _3  and  _4
REMARK    3  A    between atoms: _3  and  _6
REMARK    4  A    between atoms: _6  and  _7
REMARK    5  A    between atoms: _12  and  _13
REMARK    6  A    between atoms: _15  and  _17
REMARK    7  A    between atoms: _17  and  _18
REMARK    8  A    between atoms: _17  and  _20
REMARK    9  A    between atoms: _20  and  _21
REMARK   10  A    between atoms: _24  and  _26
REMARK   11  A    between atoms: _26  and  _27
REMARK   12  A    between atoms: _26  and  _29
REMARK   13  A    between atoms: _31  and  _33
REMARK   14  A    between atoms: _33  and  _34
REMARK   15  A    between atoms: _33  and  _36
REMARK   16  A    between atoms: _36  and  _37
REMARK   17  A    between atoms: _37  and  _38
REMARK   18  A    between atoms: _43  and  _45
REMARK   19  A    between atoms: _45  and  _46
REMARK   20  A    between atoms: _45  and  _48
REMARK   21  A    between atoms: _48  and  _49
REMARK   22  A    between atoms: _52  and  _54
REMARK   23  A    between atoms: _54  and  _55
REMARK   24  A    between atoms: _54  and  _57
REMARK   25  A    between atoms: _57  and  _58
REMARK   26  A    between atoms: _58  and  _59
REMARK   27  A    between atoms: _59  and  _60
REMARK   28  A    between atoms: _69  and  _71
REMARK   29  A    between atoms: _71  and  _72
REMARK   30  A    between atoms: _71  and  _74
REMARK   31  A    between atoms: _74  and  _75
REMARK   32  A    between atoms: _78  and  _80
REMARK   33  A    between atoms: _80  and  _81
REMARK   34  A    between atoms: _80  and  _83
REMARK   35  A    between atoms: _83  and  _84
REMARK   36  A    between atoms: _87  and  _89
REMARK   37  A    between atoms: _89  and  _90
REMARK   38  A    between atoms: _89  and  _92
REMARK   39  A    between atoms: _92  and  _93
REMARK   40  A    between atoms: _99  and  _101
REMARK   41  A    between atoms: _101  and  _102
REMARK   42  A    between atoms: _101  and  _104
REMARK   43  A    between atoms: _104  and  _105
REMARK   44  A    between atoms: _105  and  _106
REMARK   45  A    between atoms: _108  and  _110
REMARK   46  A    between atoms: _110  and  _111
REMARK   47  A    between atoms: _110  and  _113
REMARK   48  A    between atoms: _113  and  _114
REMARK   49  A    between atoms: _124  and  _126
REMARK   50  A    between atoms: _126  and  _127
REMARK   51  A    between atoms: _126  and  _129
REMARK   52  A    between atoms: _129  and  _130
REMARK   53  A    between atoms: _130  and  _131
REMARK   54  A    between atoms: _134  and  _136
REMARK   55  A    between atoms: _136  and  _137
REMARK   56  A    between atoms: _136  and  _139
REMARK   57  A    between atoms: _139  and  _140
REMARK   58  A    between atoms: _140  and  _141
REMARK   59  A    between atoms: _141  and  _142
REMARK   60  A    between atoms: _151  and  _153
REMARK   61  A    between atoms: _153  and  _154
REMARK   62  A    between atoms: _153  and  _156
REMARK   63  A    between atoms: _158  and  _160
REMARK   64  A    between atoms: _160  and  _161
REMARK   65  A    between atoms: _164  and  _166
REMARK   66  A    between atoms: _166  and  _167
REMARK   67  A    between atoms: _166  and  _169
REMARK   68  A    between atoms: _169  and  _170
REMARK   69  A    between atoms: _175  and  _177
REMARK   70  A    between atoms: _177  and  _178
REMARK   71  A    between atoms: _177  and  _180
REMARK   72  A    between atoms: _180  and  _181
REMARK   73  A    between atoms: _186  and  _188
REMARK   74  A    between atoms: _188  and  _189
REMARK   75  A    between atoms: _188  and  _191
REMARK   76  A    between atoms: _191  and  _192
REMARK   77  A    between atoms: _195  and  _197
REMARK   78  A    between atoms: _197  and  _198
REMARK   79  A    between atoms: _197  and  _200
REMARK   80  A    between atoms: _200  and  _201
REMARK   81  A    between atoms: _204  and  _206
REMARK   82  A    between atoms: _206  and  _207
REMARK   83  A    between atoms: _206  and  _209
REMARK   84  A    between atoms: _209  and  _210
REMARK   85  A    between atoms: _210  and  _211
REMARK   86  A    between atoms: _214  and  _216
REMARK   87  A    between atoms: _216  and  _217
REMARK   88  A    between atoms: _220  and  _222
REMARK   89  A    between atoms: _222  and  _223
REMARK   90  A    between atoms: _222  and  _225
REMARK   91  A    between atoms: _225  and  _226
REMARK   92  A    between atoms: _229  and  _231
REMARK   93  A    between atoms: _231  and  _232
REMARK   94  A    between atoms: _231  and  _234
REMARK   95  A    between atoms: _234  and  _235
REMARK   96  A    between atoms: _240  and  _241
REMARK   97  A    between atoms: _243  and  _245
REMARK   98  A    between atoms: _245  and  _246
REMARK   99  A    between atoms: _245  and  _248
REMARK  100  A    between atoms: _251  and  _253
REMARK  101  A    between atoms: _253  and  _254
REMARK  102  A    between atoms: _253  and  _256
REMARK  103  A    between atoms: _256  and  _257
REMARK  104  A    between atoms: _257  and  _258
REMARK  105  A    between atoms: _260  and  _262
REMARK  106  A    between atoms: _262  and  _263
REMARK  107  A    between atoms: _262  and  _265
REMARK  108  A    between atoms: _268  and  _270
REMARK  109  A    between atoms: _270  and  _271
REMARK  110  A    between atoms: _270  and  _273
REMARK  111  A    between atoms: _276  and  _278
REMARK  112  A    between atoms: _278  and  _279
REMARK  113  A    between atoms: _278  and  _281
REMARK  114  A    between atoms: _281  and  _282
REMARK  115  A    between atoms: _285  and  _287
REMARK  116  A    between atoms: _287  and  _288
REMARK  117  A    between atoms: _287  and  _290
REMARK  118  A    between atoms: _293  and  _295
REMARK  119  A    between atoms: _295  and  _296
REMARK  120  A    between atoms: _295  and  _298
REMARK  121  A    between atoms: _298  and  _299
REMARK  122  A    between atoms: _299  and  _300
REMARK  123  A    between atoms: _300  and  _301
REMARK  124  A    between atoms: _310  and  _312
REMARK  125  A    between atoms: _312  and  _313
REMARK  126  A    between atoms: _312  and  _315
REMARK  127  A    between atoms: _315  and  _316
REMARK  128  A    between atoms: _316  and  _317
REMARK  129  A    between atoms: _319  and  _321
REMARK  130  A    between atoms: _321  and  _322
REMARK  131  A    between atoms: _321  and  _324
REMARK  132  A    between atoms: _326  and  _328
REMARK  133  A    between atoms: _328  and  _329
REMARK  134  A    between atoms: _328  and  _331
REMARK  135  A    between atoms: _331  and  _332
REMARK  136  A    between atoms: _332  and  _333
REMARK  137  A    between atoms: _333  and  _334
REMARK  138  A    between atoms: _343  and  _345
REMARK  139  A    between atoms: _345  and  _346
REMARK  140  A    between atoms: _349  and  _351
REMARK  141  A    between atoms: _351  and  _352
REMARK  142  A    between atoms: _351  and  _354
REMARK  143  A    between atoms: _354  and  _355
REMARK  144  A    between atoms: _360  and  _361
REMARK  145  A    between atoms: _363  and  _365
REMARK  146  A    between atoms: _365  and  _366
REMARK  147  A    between atoms: _365  and  _368
REMARK  148  A    between atoms: _368  and  _369
REMARK  149  A    between atoms: _374  and  _376
REMARK  150  A    between atoms: _376  and  _377
REMARK  151  A    between atoms: _376  and  _379
REMARK  152  A    between atoms: _379  and  _380
REMARK  153  A    between atoms: _380  and  _381
REMARK  154  A    between atoms: _381  and  _382
REMARK  155  A    between atoms: _391  and  _393
REMARK  156  A    between atoms: _393  and  _394
REMARK  157  A    between atoms: _393  and  _396
REMARK  158  A    between atoms: _396  and  _397
REMARK  159  A    between atoms: _400  and  _402
REMARK  160  A    between atoms: _402  and  _403
REMARK  161  A    between atoms: _402  and  _405
REMARK  162  A    between atoms: _408  and  _410
REMARK  163  A    between atoms: _410  and  _411
REMARK  164  A    between atoms: _410  and  _413
REMARK  165  A    between atoms: _413  and  _414
REMARK  166  A    between atoms: _420  and  _422
REMARK  167  A    between atoms: _422  and  _423
REMARK  168  A    between atoms: _422  and  _425
REMARK  169  A    between atoms: _425  and  _426
REMARK  170  A    between atoms: _432  and  _434
REMARK  171  A    between atoms: _434  and  _435
REMARK  172  A    between atoms: _434  and  _437
REMARK  173  A    between atoms: _437  and  _438
REMARK  174  A    between atoms: _438  and  _439
REMARK  175  A    between atoms: _442  and  _444
REMARK  176  A    between atoms: _444  and  _445
REMARK  177  A    between atoms: _447  and  _449
REMARK  178  A    between atoms: _449  and  _450
REMARK  179  A    between atoms: _449  and  _452
REMARK  180  A    between atoms: _452  and  _453
REMARK  181  A    between atoms: _453  and  _454
REMARK  182  A    between atoms: _454  and  _455
REMARK  183  A    between atoms: _455  and  _456
REMARK  184  A    between atoms: _460  and  _462
REMARK  185  A    between atoms: _462  and  _463
REMARK  186  A    between atoms: _462  and  _465
REMARK  187  A    between atoms: _465  and  _466
REMARK  188  A    between atoms: _471  and  _472
REMARK  189  A    between atoms: _474  and  _476
REMARK  190  A    between atoms: _476  and  _477
REMARK  191  A    between atoms: _479  and  _481
REMARK  192  A    between atoms: _481  and  _482
REMARK  193  A    between atoms: _484  and  _486
REMARK  194  A    between atoms: _486  and  _487
REMARK  195  A    between atoms: _486  and  _489
REMARK  196  A    between atoms: _489  and  _490
REMARK  197  A    between atoms: _490  and  _491
REMARK  198  A    between atoms: _493  and  _495
REMARK  199  A    between atoms: _495  and  _496
REMARK  200  A    between atoms: _495  and  _498
REMARK  201  A    between atoms: _498  and  _499
REMARK  202  A    between atoms: _502  and  _504
REMARK  203  A    between atoms: _504  and  _505
REMARK  204  A    between atoms: _504  and  _507
REMARK  205  A    between atoms: _507  and  _508
REMARK  206  A    between atoms: _514  and  _516
REMARK  207  A    between atoms: _516  and  _517
REMARK  208  A    between atoms: _516  and  _519
REMARK  209  A    between atoms: _519  and  _520
REMARK  210  A    between atoms: _523  and  _525
REMARK  211  A    between atoms: _525  and  _526
REMARK  212  A    between atoms: _525  and  _528
REMARK  213  A    between atoms: _530  and  _532
REMARK  214  A    between atoms: _532  and  _533
REMARK  215  A    between atoms: _532  and  _535
REMARK  216  A    between atoms: _535  and  _536
REMARK  217  A    between atoms: _539  and  _541
REMARK  218  A    between atoms: _541  and  _542
REMARK  219  A    between atoms: _541  and  _544
REMARK  220  A    between atoms: _544  and  _545
REMARK  221  A    between atoms: _548  and  _550
REMARK  222  A    between atoms: _550  and  _551
REMARK  223  A    between atoms: _550  and  _553
REMARK  224  A    between atoms: _553  and  _554
REMARK  225  A    between atoms: _556  and  _558
REMARK  226  A    between atoms: _558  and  _559
REMARK  227  A    between atoms: _558  and  _561
REMARK  228  A    between atoms: _561  and  _562
REMARK  229  A    between atoms: _564  and  _566
REMARK  230  A    between atoms: _566  and  _567
REMARK  231  A    between atoms: _566  and  _569
REMARK  232  A    between atoms: _569  and  _570
REMARK  233  A    between atoms: _573  and  _575
REMARK  234  A    between atoms: _575  and  _576
REMARK  235  A    between atoms: _575  and  _578
REMARK  236  A    between atoms: _578  and  _579
REMARK  237  A    between atoms: _585  and  _587
REMARK  238  A    between atoms: _587  and  _588
REMARK  239  A    between atoms: _587  and  _590
REMARK  240  A    between atoms: _590  and  _591
REMARK  241  A    between atoms: _594  and  _596
REMARK  242  A    between atoms: _596  and  _597
REMARK  243  A    between atoms: _596  and  _599
REMARK  244  A    between atoms: _599  and  _600
REMARK  245  A    between atoms: _606  and  _608
REMARK  246  A    between atoms: _608  and  _609
REMARK  247  A    between atoms: _608  and  _611
REMARK  248  A    between atoms: _611  and  _612
REMARK  249  A    between atoms: _614  and  _616
REMARK  250  A    between atoms: _616  and  _617
REMARK  251  A    between atoms: _616  and  _619
REMARK  252  A    between atoms: _619  and  _620
REMARK  253  A    between atoms: _625  and  _627
REMARK  254  A    between atoms: _627  and  _628
REMARK  255  A    between atoms: _627  and  _630
REMARK  256  A    between atoms: _630  and  _631
REMARK  257  A    between atoms: _633  and  _635
REMARK  258  A    between atoms: _635  and  _636
REMARK  259  A    between atoms: _635  and  _638
REMARK  260  A    between atoms: _638  and  _639
REMARK  261  A    between atoms: _639  and  _640
REMARK  262  A    between atoms: _643  and  _645
REMARK  263  A    between atoms: _645  and  _646
REMARK  264  A    between atoms: _645  and  _648
REMARK  265  A    between atoms: _648  and  _649
REMARK  266  A    between atoms: _652  and  _654
REMARK  267  A    between atoms: _654  and  _655
REMARK  268  A    between atoms: _654  and  _657
REMARK  269  A    between atoms: _657  and  _658
REMARK  270  A    between atoms: _661  and  _663
REMARK  271  A    between atoms: _663  and  _664
REMARK  272  A    between atoms: _663  and  _666
REMARK  273  A    between atoms: _668  and  _670
REMARK  274  A    between atoms: _670  and  _671
REMARK  275  A    between atoms: _670  and  _673
REMARK  276  A    between atoms: _673  and  _674
REMARK  277  A    between atoms: _674  and  _675
REMARK  278  A    between atoms: _680  and  _682
REMARK  279  A    between atoms: _682  and  _683
REMARK  280  A    between atoms: _682  and  _685
REMARK  281  A    between atoms: _685  and  _686
REMARK  282  A    between atoms: _691  and  _693
REMARK  283  A    between atoms: _693  and  _694
REMARK  284  A    between atoms: _693  and  _696
REMARK  285  A    between atoms: _699  and  _701
REMARK  286  A    between atoms: _701  and  _702
REMARK  287  A    between atoms: _701  and  _704
REMARK  288  A    between atoms: _704  and  _705
REMARK  289  A    between atoms: _705  and  _706
REMARK  290  A    between atoms: _706  and  _707
REMARK  291  A    between atoms: _716  and  _718
REMARK  292  A    between atoms: _718  and  _719
REMARK  293  A    between atoms: _718  and  _721
REMARK  294  A    between atoms: _721  and  _722
REMARK  295  A    between atoms: _725  and  _727
REMARK  296  A    between atoms: _727  and  _728
REMARK  297  A    between atoms: _727  and  _730
REMARK  298  A    between atoms: _730  and  _731
REMARK  299  A    between atoms: _737  and  _739
REMARK  300  A    between atoms: _739  and  _740
REMARK  301  A    between atoms: _739  and  _742
REMARK  302  A    between atoms: _742  and  _743
REMARK  303  A    between atoms: _748  and  _749
REMARK  304  A    between atoms: _751  and  _753
REMARK  305  A    between atoms: _753  and  _754
REMARK  306  A    between atoms: _753  and  _756
REMARK  307  A    between atoms: _756  and  _757
REMARK                            x       y       z     vdW  Elec       q    Type
REMARK                         _______ _______ _______ _____ _____    ______ ____
ROOT
ATOM      1  O   HOH     1      -4.364  23.944  13.544  0.00  0.00    +0.000 OA
ENDROOT
TORSDOF 0
REMARK  Name = ../refined-set-2016/4ymq/4ymq_pocket.pdb
REMARK  307 active torsions:
REMARK  status: ('A' for Active; 'I' for Inactive)
REMARK    1  A    between atoms: _1  and  _3
REMARK    2  A    between atoms: _3  and  _4
REMARK    3  A    between atoms: _3  and  _6
REMARK    4  A    between atoms: _6  and  _7
REMARK    5  A    between atoms: _12  and  _13
REMARK    6  A    between atoms: _15  and  _17
REMARK    7  A    between atoms: _17  and  _18
REMARK    8  A    between atoms: _17  and  _20
REMARK    9  A    between atoms: _20  and  _21
REMARK   10  A    between atoms: _24  and  _26
REMARK   11  A    between atoms: _26  and  _27
REMARK   12  A    between atoms: _26  and  _29
REMARK   13  A    between atoms: _31  and  _33
REMARK   14  A    between atoms: _33  and  _34
REMARK   15  A    between atoms: _33  and  _36
REMARK   16  A    between atoms: _36  and  _37
REMARK   17  A    between atoms: _37  and  _38
REMARK   18  A    between atoms: _43  and  _45
REMARK   19  A    between atoms: _45  and  _46
REMARK   20  A    between atoms: _45  and  _48
REMARK   21  A    between atoms: _48  and  _49
REMARK   22  A    between atoms: _52  and  _54
REMARK   23  A    between atoms: _54  and  _55
REMARK   24  A    between atoms: _54  and  _57
REMARK   25  A    between atoms: _57  and  _58
REMARK   26  A    between atoms: _58  and  _59
REMARK   27  A    between atoms: _59  and  _60
REMARK   28  A    between atoms: _69  and  _71
REMARK   29  A    between atoms: _71  and  _72
REMARK   30  A    between atoms: _71  and  _74
REMARK   31  A    between atoms: _74  and  _75
REMARK   32  A    between atoms: _78  and  _80
REMARK   33  A    between atoms: _80  and  _81
REMARK   34  A    between atoms: _80  and  _83
REMARK   35  A    between atoms: _83  and  _84
REMARK   36  A    between atoms: _87  and  _89
REMARK   37  A    between atoms: _89  and  _90
REMARK   38  A    between atoms: _89  and  _92
REMARK   39  A    between atoms: _92  and  _93
REMARK   40  A    between atoms: _99  and  _101
REMARK   41  A    between atoms: _101  and  _102
REMARK   42  A    between atoms: _101  and  _104
REMARK   43  A    between atoms: _104  and  _105
REMARK   44  A    between atoms: _105  and  _106
REMARK   45  A    between atoms: _108  and  _110
REMARK   46  A    between atoms: _110  and  _111
REMARK   47  A    between atoms: _110  and  _113
REMARK   48  A    between atoms: _113  and  _114
REMARK   49  A    between atoms: _124  and  _126
REMARK   50  A    between atoms: _126  and  _127
REMARK   51  A    between atoms: _126  and  _129
REMARK   52  A    between atoms: _129  and  _130
REMARK   53  A    between atoms: _130  and  _131
REMARK   54  A    between atoms: _134  and  _136
REMARK   55  A    between atoms: _136  and  _137
REMARK   56  A    between atoms: _136  and  _139
REMARK   57  A    between atoms: _139  and  _140
REMARK   58  A    between atoms: _140  and  _141
REMARK   59  A    between atoms: _141  and  _142
REMARK   60  A    between atoms: _151  and  _153
REMARK   61  A    between atoms: _153  and  _154
REMARK   62  A    between atoms: _153  and  _156
REMARK   63  A    between atoms: _158  and  _160
REMARK   64  A    between atoms: _160  and  _161
REMARK   65  A    between atoms: _164  and  _166
REMARK   66  A    between atoms: _166  and  _167
REMARK   67  A    between atoms: _166  and  _169
REMARK   68  A    between atoms: _169  and  _170
REMARK   69  A    between atoms: _175  and  _177
REMARK   70  A    between atoms: _177  and  _178
REMARK   71  A    between atoms: _177  and  _180
REMARK   72  A    between atoms: _180  and  _181
REMARK   73  A    between atoms: _186  and  _188
REMARK   74  A    between atoms: _188  and  _189
REMARK   75  A    between atoms: _188  and  _191
REMARK   76  A    between atoms: _191  and  _192
REMARK   77  A    between atoms: _195  and  _197
REMARK   78  A    between atoms: _197  and  _198
REMARK   79  A    between atoms: _197  and  _200
REMARK   80  A    between atoms: _200  and  _201
REMARK   81  A    between atoms: _204  and  _206
REMARK   82  A    between atoms: _206  and  _207
REMARK   83  A    between atoms: _206  and  _209
REMARK   84  A    between atoms: _209  and  _210
REMARK   85  A    between atoms: _210  and  _211
REMARK   86  A    between atoms: _214  and  _216
REMARK   87  A    between atoms: _216  and  _217
REMARK   88  A    between atoms: _220  and  _222
REMARK   89  A    between atoms: _222  and  _223
REMARK   90  A    between atoms: _222  and  _225
REMARK   91  A    between atoms: _225  and  _226
REMARK   92  A    between atoms: _229  and  _231
REMARK   93  A    between atoms: _231  and  _232
REMARK   94  A    between atoms: _231  and  _234
REMARK   95  A    between atoms: _234  and  _235
REMARK   96  A    between atoms: _240  and  _241
REMARK   97  A    between atoms: _243  and  _245
REMARK   98  A    between atoms: _245  and  _246
REMARK   99  A    between atoms: _245  and  _248
REMARK  100  A    between atoms: _251  and  _253
REMARK  101  A    between atoms: _253  and  _254
REMARK  102  A    between atoms: _253  and  _256
REMARK  103  A    between atoms: _256  and  _257
REMARK  104  A    between atoms: _257  and  _258
REMARK  105  A    between atoms: _260  and  _262
REMARK  106  A    between atoms: _262  and  _263
REMARK  107  A    between atoms: _262  and  _265
REMARK  108  A    between atoms: _268  and  _270
REMARK  109  A    between atoms: _270  and  _271
REMARK  110  A    between atoms: _270  and  _273
REMARK  111  A    between atoms: _276  and  _278
REMARK  112  A    between atoms: _278  and  _279
REMARK  113  A    between atoms: _278  and  _281
REMARK  114  A    between atoms: _281  and  _282
REMARK  115  A    between atoms: _285  and  _287
REMARK  116  A    between atoms: _287  and  _288
REMARK  117  A    between atoms: _287  and  _290
REMARK  118  A    between atoms: _293  and  _295
REMARK  119  A    between atoms: _295  and  _296
REMARK  120  A    between atoms: _295  and  _298
REMARK  121  A    between atoms: _298  and  _299
REMARK  122  A    between atoms: _299  and  _300
REMARK  123  A    between atoms: _300  and  _301
REMARK  124  A    between atoms: _310  and  _312
REMARK  125  A    between atoms: _312  and  _313
REMARK  126  A    between atoms: _312  and  _315
REMARK  127  A    between atoms: _315  and  _316
REMARK  128  A    between atoms: _316  and  _317
REMARK  129  A    between atoms: _319  and  _321
REMARK  130  A    between atoms: _321  and  _322
REMARK  131  A    between atoms: _321  and  _324
REMARK  132  A    between atoms: _326  and  _328
REMARK  133  A    between atoms: _328  and  _329
REMARK  134  A    between atoms: _328  and  _331
REMARK  135  A    between atoms: _331  and  _332
REMARK  136  A    between atoms: _332  and  _333
REMARK  137  A    between atoms: _333  and  _334
REMARK  138  A    between atoms: _343  and  _345
REMARK  139  A    between atoms: _345  and  _346
REMARK  140  A    between atoms: _349  and  _351
REMARK  141  A    between atoms: _351  and  _352
REMARK  142  A    between atoms: _351  and  _354
REMARK  143  A    between atoms: _354  and  _355
REMARK  144  A    between atoms: _360  and  _361
REMARK  145  A    between atoms: _363  and  _365
REMARK  146  A    between atoms: _365  and  _366
REMARK  147  A    between atoms: _365  and  _368
REMARK  148  A    between atoms: _368  and  _369
REMARK  149  A    between atoms: _374  and  _376
REMARK  150  A    between atoms: _376  and  _377
REMARK  151  A    between atoms: _376  and  _379
REMARK  152  A    between atoms: _379  and  _380
REMARK  153  A    between atoms: _380  and  _381
REMARK  154  A    between atoms: _381  and  _382
REMARK  155  A    between atoms: _391  and  _393
REMARK  156  A    between atoms: _393  and  _394
REMARK  157  A    between atoms: _393  and  _396
REMARK  158  A    between atoms: _396  and  _397
REMARK  159  A    between atoms: _400  and  _402
REMARK  160  A    between atoms: _402  and  _403
REMARK  161  A    between atoms: _402  and  _405
REMARK  162  A    between atoms: _408  and  _410
REMARK  163  A    between atoms: _410  and  _411
REMARK  164  A    between atoms: _410  and  _413
REMARK  165  A    between atoms: _413  and  _414
REMARK  166  A    between atoms: _420  and  _422
REMARK  167  A    between atoms: _422  and  _423
REMARK  168  A    between atoms: _422  and  _425
REMARK  169  A    between atoms: _425  and  _426
REMARK  170  A    between atoms: _432  and  _434
REMARK  171  A    between atoms: _434  and  _435
REMARK  172  A    between atoms: _434  and  _437
REMARK  173  A    between atoms: _437  and  _438
REMARK  174  A    between atoms: _438  and  _439
REMARK  175  A    between atoms: _442  and  _444
REMARK  176  A    between atoms: _444  and  _445
REMARK  177  A    between atoms: _447  and  _449
REMARK  178  A    between atoms: _449  and  _450
REMARK  179  A    between atoms: _449  and  _452
REMARK  180  A    between atoms: _452  and  _453
REMARK  181  A    between atoms: _453  and  _454
REMARK  182  A    between atoms: _454  and  _455
REMARK  183  A    between atoms: _455  and  _456
REMARK  184  A    between atoms: _460  and  _462
REMARK  185  A    between atoms: _462  and  _463
REMARK  186  A    between atoms: _462  and  _465
REMARK  187  A    between atoms: _465  and  _466
REMARK  188  A    between atoms: _471  and  _472
REMARK  189  A    between atoms: _474  and  _476
REMARK  190  A    between atoms: _476  and  _477
REMARK  191  A    between atoms: _479  and  _481
REMARK  192  A    between atoms: _481  and  _482
REMARK  193  A    between atoms: _484  and  _486
REMARK  194  A    between atoms: _486  and  _487
REMARK  195  A    between atoms: _486  and  _489
REMARK  196  A    between atoms: _489  and  _490
REMARK  197  A    between atoms: _490  and  _491
REMARK  198  A    between atoms: _493  and  _495
REMARK  199  A    between atoms: _495  and  _496
REMARK  200  A    between atoms: _495  and  _498
REMARK  201  A    between atoms: _498  and  _499
REMARK  202  A    between atoms: _502  and  _504
REMARK  203  A    between atoms: _504  and  _505
REMARK  204  A    between atoms: _504  and  _507
REMARK  205  A    between atoms: _507  and  _508
REMARK  206  A    between atoms: _514  and  _516
REMARK  207  A    between atoms: _516  and  _517
REMARK  208  A    between atoms: _516  and  _519
REMARK  209  A    between atoms: _519  and  _520
REMARK  210  A    between atoms: _523  and  _525
REMARK  211  A    between atoms: _525  and  _526
REMARK  212  A    between atoms: _525  and  _528
REMARK  213  A    between atoms: _530  and  _532
REMARK  214  A    between atoms: _532  and  _533
REMARK  215  A    between atoms: _532  and  _535
REMARK  216  A    between atoms: _535  and  _536
REMARK  217  A    between atoms: _539  and  _541
REMARK  218  A    between atoms: _541  and  _542
REMARK  219  A    between atoms: _541  and  _544
REMARK  220  A    between atoms: _544  and  _545
REMARK  221  A    between atoms: _548  and  _550
REMARK  222  A    between atoms: _550  and  _551
REMARK  223  A    between atoms: _550  and  _553
REMARK  224  A    between atoms: _553  and  _554
REMARK  225  A    between atoms: _556  and  _558
REMARK  226  A    between atoms: _558  and  _559
REMARK  227  A    between atoms: _558  and  _561
REMARK  228  A    between atoms: _561  and  _562
REMARK  229  A    between atoms: _564  and  _566
REMARK  230  A    between atoms: _566  and  _567
REMARK  231  A    between atoms: _566  and  _569
REMARK  232  A    between atoms: _569  and  _570
REMARK  233  A    between atoms: _573  and  _575
REMARK  234  A    between atoms: _575  and  _576
REMARK  235  A    between atoms: _575  and  _578
REMARK  236  A    between atoms: _578  and  _579
REMARK  237  A    between atoms: _585  and  _587
REMARK  238  A    between atoms: _587  and  _588
REMARK  239  A    between atoms: _587  and  _590
REMARK  240  A    between atoms: _590  and  _591
REMARK  241  A    between atoms: _594  and  _596
REMARK  242  A    between atoms: _596  and  _597
REMARK  243  A    between atoms: _596  and  _599
REMARK  244  A    between atoms: _599  and  _600
REMARK  245  A    between atoms: _606  and  _608
REMARK  246  A    between atoms: _608  and  _609
REMARK  247  A    between atoms: _608  and  _611
REMARK  248  A    between atoms: _611  and  _612
REMARK  249  A    between atoms: _614  and  _616
REMARK  250  A    between atoms: _616  and  _617
REMARK  251  A    between atoms: _616  and  _619
REMARK  252  A    between atoms: _619  and  _620
REMARK  253  A    between atoms: _625  and  _627
REMARK  254  A    between atoms: _627  and  _628
REMARK  255  A    between atoms: _627  and  _630
REMARK  256  A    between atoms: _630  and  _631
REMARK  257  A    between atoms: _633  and  _635
REMARK  258  A    between atoms: _635  and  _636
REMARK  259  A    between atoms: _635  and  _638
REMARK  260  A    between atoms: _638  and  _639
REMARK  261  A    between atoms: _639  and  _640
REMARK  262  A    between atoms: _643  and  _645
REMARK  263  A    between atoms: _645  and  _646
REMARK  264  A    between atoms: _645  and  _648
REMARK  265  A    between atoms: _648  and  _649
REMARK  266  A    between atoms: _652  and  _654
REMARK  267  A    between atoms: _654  and  _655
REMARK  268  A    between atoms: _654  and  _657
REMARK  269  A    between atoms: _657  and  _658
REMARK  270  A    between atoms: _661  and  _663
REMARK  271  A    between atoms: _663  and  _664
REMARK  272  A    between atoms: _663  and  _666
REMARK  273  A    between atoms: _668  and  _670
REMARK  274  A    between atoms: _670  and  _671
REMARK  275  A    between atoms: _670  and  _673
REMARK  276  A    between atoms: _673  and  _674
REMARK  277  A    between atoms: _674  and  _675
REMARK  278  A    between atoms: _680  and  _682
REMARK  279  A    between atoms: _682  and  _683
REMARK  280  A    between atoms: _682  and  _685
REMARK  281  A    between atoms: _685  and  _686
REMARK  282  A    between atoms: _691  and  _693
REMARK  283  A    between atoms: _693  and  _694
REMARK  284  A    between atoms: _693  and  _696
REMARK  285  A    between atoms: _699  and  _701
REMARK  286  A    between atoms: _701  and  _702
REMARK  287  A    between atoms: _701  and  _704
REMARK  288  A    between atoms: _704  and  _705
REMARK  289  A    between atoms: _705  and  _706
REMARK  290  A    between atoms: _706  and  _707
REMARK  291  A    between atoms: _716  and  _718
REMARK  292  A    between atoms: _718  and  _719
REMARK  293  A    between atoms: _718  and  _721
REMARK  294  A    between atoms: _721  and  _722
REMARK  295  A    between atoms: _725  and  _727
REMARK  296  A    between atoms: _727  and  _728
REMARK  297  A    between atoms: _727  and  _730
REMARK  298  A    between atoms: _730  and  _731
REMARK  299  A    between atoms: _737  and  _739
REMARK  300  A    between atoms: _739  and  _740
REMARK  301  A    between atoms: _739  and  _742
REMARK  302  A    between atoms: _742  and  _743
REMARK  303  A    between atoms: _748  and  _749
REMARK  304  A    between atoms: _751  and  _753
REMARK  305  A    between atoms: _753  and  _754
REMARK  306  A    between atoms: _753  and  _756
REMARK  307  A    between atoms: _756  and  _757
REMARK                            x       y       z     vdW  Elec       q    Type
REMARK                         _______ _______ _______ _____ _____    ______ ____
ROOT
ATOM      1  O   HOH     1      -1.754  22.698  10.052  0.00  0.00    +0.000 OA
ENDROOT
TORSDOF 0
REMARK  Name = ../refined-set-2016/4ymq/4ymq_pocket.pdb
REMARK  307 active torsions:
REMARK  status: ('A' for Active; 'I' for Inactive)
REMARK    1  A    between atoms: _1  and  _3
REMARK    2  A    between atoms: _3  and  _4
REMARK    3  A    between atoms: _3  and  _6
REMARK    4  A    between atoms: _6  and  _7
REMARK    5  A    between atoms: _12  and  _13
REMARK    6  A    between atoms: _15  and  _17
REMARK    7  A    between atoms: _17  and  _18
REMARK    8  A    between atoms: _17  and  _20
REMARK    9  A    between atoms: _20  and  _21
REMARK   10  A    between atoms: _24  and  _26
REMARK   11  A    between atoms: _26  and  _27
REMARK   12  A    between atoms: _26  and  _29
REMARK   13  A    between atoms: _31  and  _33
REMARK   14  A    between atoms: _33  and  _34
REMARK   15  A    between atoms: _33  and  _36
REMARK   16  A    between atoms: _36  and  _37
REMARK   17  A    between atoms: _37  and  _38
REMARK   18  A    between atoms: _43  and  _45
REMARK   19  A    between atoms: _45  and  _46
REMARK   20  A    between atoms: _45  and  _48
REMARK   21  A    between atoms: _48  and  _49
REMARK   22  A    between atoms: _52  and  _54
REMARK   23  A    between atoms: _54  and  _55
REMARK   24  A    between atoms: _54  and  _57
REMARK   25  A    between atoms: _57  and  _58
REMARK   26  A    between atoms: _58  and  _59
REMARK   27  A    between atoms: _59  and  _60
REMARK   28  A    between atoms: _69  and  _71
REMARK   29  A    between atoms: _71  and  _72
REMARK   30  A    between atoms: _71  and  _74
REMARK   31  A    between atoms: _74  and  _75
REMARK   32  A    between atoms: _78  and  _80
REMARK   33  A    between atoms: _80  and  _81
REMARK   34  A    between atoms: _80  and  _83
REMARK   35  A    between atoms: _83  and  _84
REMARK   36  A    between atoms: _87  and  _89
REMARK   37  A    between atoms: _89  and  _90
REMARK   38  A    between atoms: _89  and  _92
REMARK   39  A    between atoms: _92  and  _93
REMARK   40  A    between atoms: _99  and  _101
REMARK   41  A    between atoms: _101  and  _102
REMARK   42  A    between atoms: _101  and  _104
REMARK   43  A    between atoms: _104  and  _105
REMARK   44  A    between atoms: _105  and  _106
REMARK   45  A    between atoms: _108  and  _110
REMARK   46  A    between atoms: _110  and  _111
REMARK   47  A    between atoms: _110  and  _113
REMARK   48  A    between atoms: _113  and  _114
REMARK   49  A    between atoms: _124  and  _126
REMARK   50  A    between atoms: _126  and  _127
REMARK   51  A    between atoms: _126  and  _129
REMARK   52  A    between atoms: _129  and  _130
REMARK   53  A    between atoms: _130  and  _131
REMARK   54  A    between atoms: _134  and  _136
REMARK   55  A    between atoms: _136  and  _137
REMARK   56  A    between atoms: _136  and  _139
REMARK   57  A    between atoms: _139  and  _140
REMARK   58  A    between atoms: _140  and  _141
REMARK   59  A    between atoms: _141  and  _142
REMARK   60  A    between atoms: _151  and  _153
REMARK   61  A    between atoms: _153  and  _154
REMARK   62  A    between atoms: _153  and  _156
REMARK   63  A    between atoms: _158  and  _160
REMARK   64  A    between atoms: _160  and  _161
REMARK   65  A    between atoms: _164  and  _166
REMARK   66  A    between atoms: _166  and  _167
REMARK   67  A    between atoms: _166  and  _169
REMARK   68  A    between atoms: _169  and  _170
REMARK   69  A    between atoms: _175  and  _177
REMARK   70  A    between atoms: _177  and  _178
REMARK   71  A    between atoms: _177  and  _180
REMARK   72  A    between atoms: _180  and  _181
REMARK   73  A    between atoms: _186  and  _188
REMARK   74  A    between atoms: _188  and  _189
REMARK   75  A    between atoms: _188  and  _191
REMARK   76  A    between atoms: _191  and  _192
REMARK   77  A    between atoms: _195  and  _197
REMARK   78  A    between atoms: _197  and  _198
REMARK   79  A    between atoms: _197  and  _200
REMARK   80  A    between atoms: _200  and  _201
REMARK   81  A    between atoms: _204  and  _206
REMARK   82  A    between atoms: _206  and  _207
REMARK   83  A    between atoms: _206  and  _209
REMARK   84  A    between atoms: _209  and  _210
REMARK   85  A    between atoms: _210  and  _211
REMARK   86  A    between atoms: _214  and  _216
REMARK   87  A    between atoms: _216  and  _217
REMARK   88  A    between atoms: _220  and  _222
REMARK   89  A    between atoms: _222  and  _223
REMARK   90  A    between atoms: _222  and  _225
REMARK   91  A    between atoms: _225  and  _226
REMARK   92  A    between atoms: _229  and  _231
REMARK   93  A    between atoms: _231  and  _232
REMARK   94  A    between atoms: _231  and  _234
REMARK   95  A    between atoms: _234  and  _235
REMARK   96  A    between atoms: _240  and  _241
REMARK   97  A    between atoms: _243  and  _245
REMARK   98  A    between atoms: _245  and  _246
REMARK   99  A    between atoms: _245  and  _248
REMARK  100  A    between atoms: _251  and  _253
REMARK  101  A    between atoms: _253  and  _254
REMARK  102  A    between atoms: _253  and  _256
REMARK  103  A    between atoms: _256  and  _257
REMARK  104  A    between atoms: _257  and  _258
REMARK  105  A    between atoms: _260  and  _262
REMARK  106  A    between atoms: _262  and  _263
REMARK  107  A    between atoms: _262  and  _265
REMARK  108  A    between atoms: _268  and  _270
REMARK  109  A    between atoms: _270  and  _271
REMARK  110  A    between atoms: _270  and  _273
REMARK  111  A    between atoms: _276  and  _278
REMARK  112  A    between atoms: _278  and  _279
REMARK  113  A    between atoms: _278  and  _281
REMARK  114  A    between atoms: _281  and  _282
REMARK  115  A    between atoms: _285  and  _287
REMARK  116  A    between atoms: _287  and  _288
REMARK  117  A    between atoms: _287  and  _290
REMARK  118  A    between atoms: _293  and  _295
REMARK  119  A    between atoms: _295  and  _296
REMARK  120  A    between atoms: _295  and  _298
REMARK  121  A    between atoms: _298  and  _299
REMARK  122  A    between atoms: _299  and  _300
REMARK  123  A    between atoms: _300  and  _301
REMARK  124  A    between atoms: _310  and  _312
REMARK  125  A    between atoms: _312  and  _313
REMARK  126  A    between atoms: _312  and  _315
REMARK  127  A    between atoms: _315  and  _316
REMARK  128  A    between atoms: _316  and  _317
REMARK  129  A    between atoms: _319  and  _321
REMARK  130  A    between atoms: _321  and  _322
REMARK  131  A    between atoms: _321  and  _324
REMARK  132  A    between atoms: _326  and  _328
REMARK  133  A    between atoms: _328  and  _329
REMARK  134  A    between atoms: _328  and  _331
REMARK  135  A    between atoms: _331  and  _332
REMARK  136  A    between atoms: _332  and  _333
REMARK  137  A    between atoms: _333  and  _334
REMARK  138  A    between atoms: _343  and  _345
REMARK  139  A    between atoms: _345  and  _346
REMARK  140  A    between atoms: _349  and  _351
REMARK  141  A    between atoms: _351  and  _352
REMARK  142  A    between atoms: _351  and  _354
REMARK  143  A    between atoms: _354  and  _355
REMARK  144  A    between atoms: _360  and  _361
REMARK  145  A    between atoms: _363  and  _365
REMARK  146  A    between atoms: _365  and  _366
REMARK  147  A    between atoms: _365  and  _368
REMARK  148  A    between atoms: _368  and  _369
REMARK  149  A    between atoms: _374  and  _376
REMARK  150  A    between atoms: _376  and  _377
REMARK  151  A    between atoms: _376  and  _379
REMARK  152  A    between atoms: _379  and  _380
REMARK  153  A    between atoms: _380  and  _381
REMARK  154  A    between atoms: _381  and  _382
REMARK  155  A    between atoms: _391  and  _393
REMARK  156  A    between atoms: _393  and  _394
REMARK  157  A    between atoms: _393  and  _396
REMARK  158  A    between atoms: _396  and  _397
REMARK  159  A    between atoms: _400  and  _402
REMARK  160  A    between atoms: _402  and  _403
REMARK  161  A    between atoms: _402  and  _405
REMARK  162  A    between atoms: _408  and  _410
REMARK  163  A    between atoms: _410  and  _411
REMARK  164  A    between atoms: _410  and  _413
REMARK  165  A    between atoms: _413  and  _414
REMARK  166  A    between atoms: _420  and  _422
REMARK  167  A    between atoms: _422  and  _423
REMARK  168  A    between atoms: _422  and  _425
REMARK  169  A    between atoms: _425  and  _426
REMARK  170  A    between atoms: _432  and  _434
REMARK  171  A    between atoms: _434  and  _435
REMARK  172  A    between atoms: _434  and  _437
REMARK  173  A    between atoms: _437  and  _438
REMARK  174  A    between atoms: _438  and  _439
REMARK  175  A    between atoms: _442  and  _444
REMARK  176  A    between atoms: _444  and  _445
REMARK  177  A    between atoms: _447  and  _449
REMARK  178  A    between atoms: _449  and  _450
REMARK  179  A    between atoms: _449  and  _452
REMARK  180  A    between atoms: _452  and  _453
REMARK  181  A    between atoms: _453  and  _454
REMARK  182  A    between atoms: _454  and  _455
REMARK  183  A    between atoms: _455  and  _456
REMARK  184  A    between atoms: _460  and  _462
REMARK  185  A    between atoms: _462  and  _463
REMARK  186  A    between atoms: _462  and  _465
REMARK  187  A    between atoms: _465  and  _466
REMARK  188  A    between atoms: _471  and  _472
REMARK  189  A    between atoms: _474  and  _476
REMARK  190  A    between atoms: _476  and  _477
REMARK  191  A    between atoms: _479  and  _481
REMARK  192  A    between atoms: _481  and  _482
REMARK  193  A    between atoms: _484  and  _486
REMARK  194  A    between atoms: _486  and  _487
REMARK  195  A    between atoms: _486  and  _489
REMARK  196  A    between atoms: _489  and  _490
REMARK  197  A    between atoms: _490  and  _491
REMARK  198  A    between atoms: _493  and  _495
REMARK  199  A    between atoms: _495  and  _496
REMARK  200  A    between atoms: _495  and  _498
REMARK  201  A    between atoms: _498  and  _499
REMARK  202  A    between atoms: _502  and  _504
REMARK  203  A    between atoms: _504  and  _505
REMARK  204  A    between atoms: _504  and  _507
REMARK  205  A    between atoms: _507  and  _508
REMARK  206  A    between atoms: _514  and  _516
REMARK  207  A    between atoms: _516  and  _517
REMARK  208  A    between atoms: _516  and  _519
REMARK  209  A    between atoms: _519  and  _520
REMARK  210  A    between atoms: _523  and  _525
REMARK  211  A    between atoms: _525  and  _526
REMARK  212  A    between atoms: _525  and  _528
REMARK  213  A    between atoms: _530  and  _532
REMARK  214  A    between atoms: _532  and  _533
REMARK  215  A    between atoms: _532  and  _535
REMARK  216  A    between atoms: _535  and  _536
REMARK  217  A    between atoms: _539  and  _541
REMARK  218  A    between atoms: _541  and  _542
REMARK  219  A    between atoms: _541  and  _544
REMARK  220  A    between atoms: _544  and  _545
REMARK  221  A    between atoms: _548  and  _550
REMARK  222  A    between atoms: _550  and  _551
REMARK  223  A    between atoms: _550  and  _553
REMARK  224  A    between atoms: _553  and  _554
REMARK  225  A    between atoms: _556  and  _558
REMARK  226  A    between atoms: _558  and  _559
REMARK  227  A    between atoms: _558  and  _561
REMARK  228  A    between atoms: _561  and  _562
REMARK  229  A    between atoms: _564  and  _566
REMARK  230  A    between atoms: _566  and  _567
REMARK  231  A    between atoms: _566  and  _569
REMARK  232  A    between atoms: _569  and  _570
REMARK  233  A    between atoms: _573  and  _575
REMARK  234  A    between atoms: _575  and  _576
REMARK  235  A    between atoms: _575  and  _578
REMARK  236  A    between atoms: _578  and  _579
REMARK  237  A    between atoms: _585  and  _587
REMARK  238  A    between atoms: _587  and  _588
REMARK  239  A    between atoms: _587  and  _590
REMARK  240  A    between atoms: _590  and  _591
REMARK  241  A    between atoms: _594  and  _596
REMARK  242  A    between atoms: _596  and  _597
REMARK  243  A    between atoms: _596  and  _599
REMARK  244  A    between atoms: _599  and  _600
REMARK  245  A    between atoms: _606  and  _608
REMARK  246  A    between atoms: _608  and  _609
REMARK  247  A    between atoms: _608  and  _611
REMARK  248  A    between atoms: _611  and  _612
REMARK  249  A    between atoms: _614  and  _616
REMARK  250  A    between atoms: _616  and  _617
REMARK  251  A    between atoms: _616  and  _619
REMARK  252  A    between atoms: _619  and  _620
REMARK  253  A    between atoms: _625  and  _627
REMARK  254  A    between atoms: _627  and  _628
REMARK  255  A    between atoms: _627  and  _630
REMARK  256  A    between atoms: _630  and  _631
REMARK  257  A    between atoms: _633  and  _635
REMARK  258  A    between atoms: _635  and  _636
REMARK  259  A    between atoms: _635  and  _638
REMARK  260  A    between atoms: _638  and  _639
REMARK  261  A    between atoms: _639  and  _640
REMARK  262  A    between atoms: _643  and  _645
REMARK  263  A    between atoms: _645  and  _646
REMARK  264  A    between atoms: _645  and  _648
REMARK  265  A    between atoms: _648  and  _649
REMARK  266  A    between atoms: _652  and  _654
REMARK  267  A    between atoms: _654  and  _655
REMARK  268  A    between atoms: _654  and  _657
REMARK  269  A    between atoms: _657  and  _658
REMARK  270  A    between atoms: _661  and  _663
REMARK  271  A    between atoms: _663  and  _664
REMARK  272  A    between atoms: _663  and  _666
REMARK  273  A    between atoms: _668  and  _670
REMARK  274  A    between atoms: _670  and  _671
REMARK  275  A    between atoms: _670  and  _673
REMARK  276  A    between atoms: _673  and  _674
REMARK  277  A    between atoms: _674  and  _675
REMARK  278  A    between atoms: _680  and  _682
REMARK  279  A    between atoms: _682  and  _683
REMARK  280  A    between atoms: _682  and  _685
REMARK  281  A    between atoms: _685  and  _686
REMARK  282  A    between atoms: _691  and  _693
REMARK  283  A    between atoms: _693  and  _694
REMARK  284  A    between atoms: _693  and  _696
REMARK  285  A    between atoms: _699  and  _701
REMARK  286  A    between atoms: _701  and  _702
REMARK  287  A    between atoms: _701  and  _704
REMARK  288  A    between atoms: _704  and  _705
REMARK  289  A    between atoms: _705  and  _706
REMARK  290  A    between atoms: _706  and  _707
REMARK  291  A    between atoms: _716  and  _718
REMARK  292  A    between atoms: _718  and  _719
REMARK  293  A    between atoms: _718  and  _721
REMARK  294  A    between atoms: _721  and  _722
REMARK  295  A    between atoms: _725  and  _727
REMARK  296  A    between atoms: _727  and  _728
REMARK  297  A    between atoms: _727  and  _730
REMARK  298  A    between atoms: _730  and  _731
REMARK  299  A    between atoms: _737  and  _739
REMARK  300  A    between atoms: _739  and  _740
REMARK  301  A    between atoms: _739  and  _742
REMARK  302  A    between atoms: _742  and  _743
REMARK  303  A    between atoms: _748  and  _749
REMARK  304  A    between atoms: _751  and  _753
REMARK  305  A    between atoms: _753  and  _754
REMARK  306  A    between atoms: _753  and  _756
REMARK  307  A    between atoms: _756  and  _757
REMARK                            x       y       z     vdW  Elec       q    Type
REMARK                         _______ _______ _______ _____ _____    ______ ____
ROOT
ATOM      1  O   HOH     1       5.123  22.014  17.877  0.00  0.00    +0.000 OA
ENDROOT
TORSDOF 0
REMARK  Name = ../refined-set-2016/4ymq/4ymq_pocket.pdb
REMARK  307 active torsions:
REMARK  status: ('A' for Active; 'I' for Inactive)
REMARK    1  A    between atoms: _1  and  _3
REMARK    2  A    between atoms: _3  and  _4
REMARK    3  A    between atoms: _3  and  _6
REMARK    4  A    between atoms: _6  and  _7
REMARK    5  A    between atoms: _12  and  _13
REMARK    6  A    between atoms: _15  and  _17
REMARK    7  A    between atoms: _17  and  _18
REMARK    8  A    between atoms: _17  and  _20
REMARK    9  A    between atoms: _20  and  _21
REMARK   10  A    between atoms: _24  and  _26
REMARK   11  A    between atoms: _26  and  _27
REMARK   12  A    between atoms: _26  and  _29
REMARK   13  A    between atoms: _31  and  _33
REMARK   14  A    between atoms: _33  and  _34
REMARK   15  A    between atoms: _33  and  _36
REMARK   16  A    between atoms: _36  and  _37
REMARK   17  A    between atoms: _37  and  _38
REMARK   18  A    between atoms: _43  and  _45
REMARK   19  A    between atoms: _45  and  _46
REMARK   20  A    between atoms: _45  and  _48
REMARK   21  A    between atoms: _48  and  _49
REMARK   22  A    between atoms: _52  and  _54
REMARK   23  A    between atoms: _54  and  _55
REMARK   24  A    between atoms: _54  and  _57
REMARK   25  A    between atoms: _57  and  _58
REMARK   26  A    between atoms: _58  and  _59
REMARK   27  A    between atoms: _59  and  _60
REMARK   28  A    between atoms: _69  and  _71
REMARK   29  A    between atoms: _71  and  _72
REMARK   30  A    between atoms: _71  and  _74
REMARK   31  A    between atoms: _74  and  _75
REMARK   32  A    between atoms: _78  and  _80
REMARK   33  A    between atoms: _80  and  _81
REMARK   34  A    between atoms: _80  and  _83
REMARK   35  A    between atoms: _83  and  _84
REMARK   36  A    between atoms: _87  and  _89
REMARK   37  A    between atoms: _89  and  _90
REMARK   38  A    between atoms: _89  and  _92
REMARK   39  A    between atoms: _92  and  _93
REMARK   40  A    between atoms: _99  and  _101
REMARK   41  A    between atoms: _101  and  _102
REMARK   42  A    between atoms: _101  and  _104
REMARK   43  A    between atoms: _104  and  _105
REMARK   44  A    between atoms: _105  and  _106
REMARK   45  A    between atoms: _108  and  _110
REMARK   46  A    between atoms: _110  and  _111
REMARK   47  A    between atoms: _110  and  _113
REMARK   48  A    between atoms: _113  and  _114
REMARK   49  A    between atoms: _124  and  _126
REMARK   50  A    between atoms: _126  and  _127
REMARK   51  A    between atoms: _126  and  _129
REMARK   52  A    between atoms: _129  and  _130
REMARK   53  A    between atoms: _130  and  _131
REMARK   54  A    between atoms: _134  and  _136
REMARK   55  A    between atoms: _136  and  _137
REMARK   56  A    between atoms: _136  and  _139
REMARK   57  A    between atoms: _139  and  _140
REMARK   58  A    between atoms: _140  and  _141
REMARK   59  A    between atoms: _141  and  _142
REMARK   60  A    between atoms: _151  and  _153
REMARK   61  A    between atoms: _153  and  _154
REMARK   62  A    between atoms: _153  and  _156
REMARK   63  A    between atoms: _158  and  _160
REMARK   64  A    between atoms: _160  and  _161
REMARK   65  A    between atoms: _164  and  _166
REMARK   66  A    between atoms: _166  and  _167
REMARK   67  A    between atoms: _166  and  _169
REMARK   68  A    between atoms: _169  and  _170
REMARK   69  A    between atoms: _175  and  _177
REMARK   70  A    between atoms: _177  and  _178
REMARK   71  A    between atoms: _177  and  _180
REMARK   72  A    between atoms: _180  and  _181
REMARK   73  A    between atoms: _186  and  _188
REMARK   74  A    between atoms: _188  and  _189
REMARK   75  A    between atoms: _188  and  _191
REMARK   76  A    between atoms: _191  and  _192
REMARK   77  A    between atoms: _195  and  _197
REMARK   78  A    between atoms: _197  and  _198
REMARK   79  A    between atoms: _197  and  _200
REMARK   80  A    between atoms: _200  and  _201
REMARK   81  A    between atoms: _204  and  _206
REMARK   82  A    between atoms: _206  and  _207
REMARK   83  A    between atoms: _206  and  _209
REMARK   84  A    between atoms: _209  and  _210
REMARK   85  A    between atoms: _210  and  _211
REMARK   86  A    between atoms: _214  and  _216
REMARK   87  A    between atoms: _216  and  _217
REMARK   88  A    between atoms: _220  and  _222
REMARK   89  A    between atoms: _222  and  _223
REMARK   90  A    between atoms: _222  and  _225
REMARK   91  A    between atoms: _225  and  _226
REMARK   92  A    between atoms: _229  and  _231
REMARK   93  A    between atoms: _231  and  _232
REMARK   94  A    between atoms: _231  and  _234
REMARK   95  A    between atoms: _234  and  _235
REMARK   96  A    between atoms: _240  and  _241
REMARK   97  A    between atoms: _243  and  _245
REMARK   98  A    between atoms: _245  and  _246
REMARK   99  A    between atoms: _245  and  _248
REMARK  100  A    between atoms: _251  and  _253
REMARK  101  A    between atoms: _253  and  _254
REMARK  102  A    between atoms: _253  and  _256
REMARK  103  A    between atoms: _256  and  _257
REMARK  104  A    between atoms: _257  and  _258
REMARK  105  A    between atoms: _260  and  _262
REMARK  106  A    between atoms: _262  and  _263
REMARK  107  A    between atoms: _262  and  _265
REMARK  108  A    between atoms: _268  and  _270
REMARK  109  A    between atoms: _270  and  _271
REMARK  110  A    between atoms: _270  and  _273
REMARK  111  A    between atoms: _276  and  _278
REMARK  112  A    between atoms: _278  and  _279
REMARK  113  A    between atoms: _278  and  _281
REMARK  114  A    between atoms: _281  and  _282
REMARK  115  A    between atoms: _285  and  _287
REMARK  116  A    between atoms: _287  and  _288
REMARK  117  A    between atoms: _287  and  _290
REMARK  118  A    between atoms: _293  and  _295
REMARK  119  A    between atoms: _295  and  _296
REMARK  120  A    between atoms: _295  and  _298
REMARK  121  A    between atoms: _298  and  _299
REMARK  122  A    between atoms: _299  and  _300
REMARK  123  A    between atoms: _300  and  _301
REMARK  124  A    between atoms: _310  and  _312
REMARK  125  A    between atoms: _312  and  _313
REMARK  126  A    between atoms: _312  and  _315
REMARK  127  A    between atoms: _315  and  _316
REMARK  128  A    between atoms: _316  and  _317
REMARK  129  A    between atoms: _319  and  _321
REMARK  130  A    between atoms: _321  and  _322
REMARK  131  A    between atoms: _321  and  _324
REMARK  132  A    between atoms: _326  and  _328
REMARK  133  A    between atoms: _328  and  _329
REMARK  134  A    between atoms: _328  and  _331
REMARK  135  A    between atoms: _331  and  _332
REMARK  136  A    between atoms: _332  and  _333
REMARK  137  A    between atoms: _333  and  _334
REMARK  138  A    between atoms: _343  and  _345
REMARK  139  A    between atoms: _345  and  _346
REMARK  140  A    between atoms: _349  and  _351
REMARK  141  A    between atoms: _351  and  _352
REMARK  142  A    between atoms: _351  and  _354
REMARK  143  A    between atoms: _354  and  _355
REMARK  144  A    between atoms: _360  and  _361
REMARK  145  A    between atoms: _363  and  _365
REMARK  146  A    between atoms: _365  and  _366
REMARK  147  A    between atoms: _365  and  _368
REMARK  148  A    between atoms: _368  and  _369
REMARK  149  A    between atoms: _374  and  _376
REMARK  150  A    between atoms: _376  and  _377
REMARK  151  A    between atoms: _376  and  _379
REMARK  152  A    between atoms: _379  and  _380
REMARK  153  A    between atoms: _380  and  _381
REMARK  154  A    between atoms: _381  and  _382
REMARK  155  A    between atoms: _391  and  _393
REMARK  156  A    between atoms: _393  and  _394
REMARK  157  A    between atoms: _393  and  _396
REMARK  158  A    between atoms: _396  and  _397
REMARK  159  A    between atoms: _400  and  _402
REMARK  160  A    between atoms: _402  and  _403
REMARK  161  A    between atoms: _402  and  _405
REMARK  162  A    between atoms: _408  and  _410
REMARK  163  A    between atoms: _410  and  _411
REMARK  164  A    between atoms: _410  and  _413
REMARK  165  A    between atoms: _413  and  _414
REMARK  166  A    between atoms: _420  and  _422
REMARK  167  A    between atoms: _422  and  _423
REMARK  168  A    between atoms: _422  and  _425
REMARK  169  A    between atoms: _425  and  _426
REMARK  170  A    between atoms: _432  and  _434
REMARK  171  A    between atoms: _434  and  _435
REMARK  172  A    between atoms: _434  and  _437
REMARK  173  A    between atoms: _437  and  _438
REMARK  174  A    between atoms: _438  and  _439
REMARK  175  A    between atoms: _442  and  _444
REMARK  176  A    between atoms: _444  and  _445
REMARK  177  A    between atoms: _447  and  _449
REMARK  178  A    between atoms: _449  and  _450
REMARK  179  A    between atoms: _449  and  _452
REMARK  180  A    between atoms: _452  and  _453
REMARK  181  A    between atoms: _453  and  _454
REMARK  182  A    between atoms: _454  and  _455
REMARK  183  A    between atoms: _455  and  _456
REMARK  184  A    between atoms: _460  and  _462
REMARK  185  A    between atoms: _462  and  _463
REMARK  186  A    between atoms: _462  and  _465
REMARK  187  A    between atoms: _465  and  _466
REMARK  188  A    between atoms: _471  and  _472
REMARK  189  A    between atoms: _474  and  _476
REMARK  190  A    between atoms: _476  and  _477
REMARK  191  A    between atoms: _479  and  _481
REMARK  192  A    between atoms: _481  and  _482
REMARK  193  A    between atoms: _484  and  _486
REMARK  194  A    between atoms: _486  and  _487
REMARK  195  A    between atoms: _486  and  _489
REMARK  196  A    between atoms: _489  and  _490
REMARK  197  A    between atoms: _490  and  _491
REMARK  198  A    between atoms: _493  and  _495
REMARK  199  A    between atoms: _495  and  _496
REMARK  200  A    between atoms: _495  and  _498
REMARK  201  A    between atoms: _498  and  _499
REMARK  202  A    between atoms: _502  and  _504
REMARK  203  A    between atoms: _504  and  _505
REMARK  204  A    between atoms: _504  and  _507
REMARK  205  A    between atoms: _507  and  _508
REMARK  206  A    between atoms: _514  and  _516
REMARK  207  A    between atoms: _516  and  _517
REMARK  208  A    between atoms: _516  and  _519
REMARK  209  A    between atoms: _519  and  _520
REMARK  210  A    between atoms: _523  and  _525
REMARK  211  A    between atoms: _525  and  _526
REMARK  212  A    between atoms: _525  and  _528
REMARK  213  A    between atoms: _530  and  _532
REMARK  214  A    between atoms: _532  and  _533
REMARK  215  A    between atoms: _532  and  _535
REMARK  216  A    between atoms: _535  and  _536
REMARK  217  A    between atoms: _539  and  _541
REMARK  218  A    between atoms: _541  and  _542
REMARK  219  A    between atoms: _541  and  _544
REMARK  220  A    between atoms: _544  and  _545
REMARK  221  A    between atoms: _548  and  _550
REMARK  222  A    between atoms: _550  and  _551
REMARK  223  A    between atoms: _550  and  _553
REMARK  224  A    between atoms: _553  and  _554
REMARK  225  A    between atoms: _556  and  _558
REMARK  226  A    between atoms: _558  and  _559
REMARK  227  A    between atoms: _558  and  _561
REMARK  228  A    between atoms: _561  and  _562
REMARK  229  A    between atoms: _564  and  _566
REMARK  230  A    between atoms: _566  and  _567
REMARK  231  A    between atoms: _566  and  _569
REMARK  232  A    between atoms: _569  and  _570
REMARK  233  A    between atoms: _573  and  _575
REMARK  234  A    between atoms: _575  and  _576
REMARK  235  A    between atoms: _575  and  _578
REMARK  236  A    between atoms: _578  and  _579
REMARK  237  A    between atoms: _585  and  _587
REMARK  238  A    between atoms: _587  and  _588
REMARK  239  A    between atoms: _587  and  _590
REMARK  240  A    between atoms: _590  and  _591
REMARK  241  A    between atoms: _594  and  _596
REMARK  242  A    between atoms: _596  and  _597
REMARK  243  A    between atoms: _596  and  _599
REMARK  244  A    between atoms: _599  and  _600
REMARK  245  A    between atoms: _606  and  _608
REMARK  246  A    between atoms: _608  and  _609
REMARK  247  A    between atoms: _608  and  _611
REMARK  248  A    between atoms: _611  and  _612
REMARK  249  A    between atoms: _614  and  _616
REMARK  250  A    between atoms: _616  and  _617
REMARK  251  A    between atoms: _616  and  _619
REMARK  252  A    between atoms: _619  and  _620
REMARK  253  A    between atoms: _625  and  _627
REMARK  254  A    between atoms: _627  and  _628
REMARK  255  A    between atoms: _627  and  _630
REMARK  256  A    between atoms: _630  and  _631
REMARK  257  A    between atoms: _633  and  _635
REMARK  258  A    between atoms: _635  and  _636
REMARK  259  A    between atoms: _635  and  _638
REMARK  260  A    between atoms: _638  and  _639
REMARK  261  A    between atoms: _639  and  _640
REMARK  262  A    between atoms: _643  and  _645
REMARK  263  A    between atoms: _645  and  _646
REMARK  264  A    between atoms: _645  and  _648
REMARK  265  A    between atoms: _648  and  _649
REMARK  266  A    between atoms: _652  and  _654
REMARK  267  A    between atoms: _654  and  _655
REMARK  268  A    between atoms: _654  and  _657
REMARK  269  A    between atoms: _657  and  _658
REMARK  270  A    between atoms: _661  and  _663
REMARK  271  A    between atoms: _663  and  _664
REMARK  272  A    between atoms: _663  and  _666
REMARK  273  A    between atoms: _668  and  _670
REMARK  274  A    between atoms: _670  and  _671
REMARK  275  A    between atoms: _670  and  _673
REMARK  276  A    between atoms: _673  and  _674
REMARK  277  A    between atoms: _674  and  _675
REMARK  278  A    between atoms: _680  and  _682
REMARK  279  A    between atoms: _682  and  _683
REMARK  280  A    between atoms: _682  and  _685
REMARK  281  A    between atoms: _685  and  _686
REMARK  282  A    between atoms: _691  and  _693
REMARK  283  A    between atoms: _693  and  _694
REMARK  284  A    between atoms: _693  and  _696
REMARK  285  A    between atoms: _699  and  _701
REMARK  286  A    between atoms: _701  and  _702
REMARK  287  A    between atoms: _701  and  _704
REMARK  288  A    between atoms: _704  and  _705
REMARK  289  A    between atoms: _705  and  _706
REMARK  290  A    between atoms: _706  and  _707
REMARK  291  A    between atoms: _716  and  _718
REMARK  292  A    between atoms: _718  and  _719
REMARK  293  A    between atoms: _718  and  _721
REMARK  294  A    between atoms: _721  and  _722
REMARK  295  A    between atoms: _725  and  _727
REMARK  296  A    between atoms: _727  and  _728
REMARK  297  A    between atoms: _727  and  _730
REMARK  298  A    between atoms: _730  and  _731
REMARK  299  A    between atoms: _737  and  _739
REMARK  300  A    between atoms: _739  and  _740
REMARK  301  A    between atoms: _739  and  _742
REMARK  302  A    between atoms: _742  and  _743
REMARK  303  A    between atoms: _748  and  _749
REMARK  304  A    between atoms: _751  and  _753
REMARK  305  A    between atoms: _753  and  _754
REMARK  306  A    between atoms: _753  and  _756
REMARK  307  A    between atoms: _756  and  _757
REMARK                            x       y       z     vdW  Elec       q    Type
REMARK                         _______ _______ _______ _____ _____    ______ ____
ROOT
ATOM      1  O   HOH     1      11.369  25.485  16.409  0.00  0.00    +0.000 OA
ENDROOT
TORSDOF 0
REMARK  Name = ../refined-set-2016/4ymq/4ymq_pocket.pdb
REMARK  307 active torsions:
REMARK  status: ('A' for Active; 'I' for Inactive)
REMARK    1  A    between atoms: _1  and  _3
REMARK    2  A    between atoms: _3  and  _4
REMARK    3  A    between atoms: _3  and  _6
REMARK    4  A    between atoms: _6  and  _7
REMARK    5  A    between atoms: _12  and  _13
REMARK    6  A    between atoms: _15  and  _17
REMARK    7  A    between atoms: _17  and  _18
REMARK    8  A    between atoms: _17  and  _20
REMARK    9  A    between atoms: _20  and  _21
REMARK   10  A    between atoms: _24  and  _26
REMARK   11  A    between atoms: _26  and  _27
REMARK   12  A    between atoms: _26  and  _29
REMARK   13  A    between atoms: _31  and  _33
REMARK   14  A    between atoms: _33  and  _34
REMARK   15  A    between atoms: _33  and  _36
REMARK   16  A    between atoms: _36  and  _37
REMARK   17  A    between atoms: _37  and  _38
REMARK   18  A    between atoms: _43  and  _45
REMARK   19  A    between atoms: _45  and  _46
REMARK   20  A    between atoms: _45  and  _48
REMARK   21  A    between atoms: _48  and  _49
REMARK   22  A    between atoms: _52  and  _54
REMARK   23  A    between atoms: _54  and  _55
REMARK   24  A    between atoms: _54  and  _57
REMARK   25  A    between atoms: _57  and  _58
REMARK   26  A    between atoms: _58  and  _59
REMARK   27  A    between atoms: _59  and  _60
REMARK   28  A    between atoms: _69  and  _71
REMARK   29  A    between atoms: _71  and  _72
REMARK   30  A    between atoms: _71  and  _74
REMARK   31  A    between atoms: _74  and  _75
REMARK   32  A    between atoms: _78  and  _80
REMARK   33  A    between atoms: _80  and  _81
REMARK   34  A    between atoms: _80  and  _83
REMARK   35  A    between atoms: _83  and  _84
REMARK   36  A    between atoms: _87  and  _89
REMARK   37  A    between atoms: _89  and  _90
REMARK   38  A    between atoms: _89  and  _92
REMARK   39  A    between atoms: _92  and  _93
REMARK   40  A    between atoms: _99  and  _101
REMARK   41  A    between atoms: _101  and  _102
REMARK   42  A    between atoms: _101  and  _104
REMARK   43  A    between atoms: _104  and  _105
REMARK   44  A    between atoms: _105  and  _106
REMARK   45  A    between atoms: _108  and  _110
REMARK   46  A    between atoms: _110  and  _111
REMARK   47  A    between atoms: _110  and  _113
REMARK   48  A    between atoms: _113  and  _114
REMARK   49  A    between atoms: _124  and  _126
REMARK   50  A    between atoms: _126  and  _127
REMARK   51  A    between atoms: _126  and  _129
REMARK   52  A    between atoms: _129  and  _130
REMARK   53  A    between atoms: _130  and  _131
REMARK   54  A    between atoms: _134  and  _136
REMARK   55  A    between atoms: _136  and  _137
REMARK   56  A    between atoms: _136  and  _139
REMARK   57  A    between atoms: _139  and  _140
REMARK   58  A    between atoms: _140  and  _141
REMARK   59  A    between atoms: _141  and  _142
REMARK   60  A    between atoms: _151  and  _153
REMARK   61  A    between atoms: _153  and  _154
REMARK   62  A    between atoms: _153  and  _156
REMARK   63  A    between atoms: _158  and  _160
REMARK   64  A    between atoms: _160  and  _161
REMARK   65  A    between atoms: _164  and  _166
REMARK   66  A    between atoms: _166  and  _167
REMARK   67  A    between atoms: _166  and  _169
REMARK   68  A    between atoms: _169  and  _170
REMARK   69  A    between atoms: _175  and  _177
REMARK   70  A    between atoms: _177  and  _178
REMARK   71  A    between atoms: _177  and  _180
REMARK   72  A    between atoms: _180  and  _181
REMARK   73  A    between atoms: _186  and  _188
REMARK   74  A    between atoms: _188  and  _189
REMARK   75  A    between atoms: _188  and  _191
REMARK   76  A    between atoms: _191  and  _192
REMARK   77  A    between atoms: _195  and  _197
REMARK   78  A    between atoms: _197  and  _198
REMARK   79  A    between atoms: _197  and  _200
REMARK   80  A    between atoms: _200  and  _201
REMARK   81  A    between atoms: _204  and  _206
REMARK   82  A    between atoms: _206  and  _207
REMARK   83  A    between atoms: _206  and  _209
REMARK   84  A    between atoms: _209  and  _210
REMARK   85  A    between atoms: _210  and  _211
REMARK   86  A    between atoms: _214  and  _216
REMARK   87  A    between atoms: _216  and  _217
REMARK   88  A    between atoms: _220  and  _222
REMARK   89  A    between atoms: _222  and  _223
REMARK   90  A    between atoms: _222  and  _225
REMARK   91  A    between atoms: _225  and  _226
REMARK   92  A    between atoms: _229  and  _231
REMARK   93  A    between atoms: _231  and  _232
REMARK   94  A    between atoms: _231  and  _234
REMARK   95  A    between atoms: _234  and  _235
REMARK   96  A    between atoms: _240  and  _241
REMARK   97  A    between atoms: _243  and  _245
REMARK   98  A    between atoms: _245  and  _246
REMARK   99  A    between atoms: _245  and  _248
REMARK  100  A    between atoms: _251  and  _253
REMARK  101  A    between atoms: _253  and  _254
REMARK  102  A    between atoms: _253  and  _256
REMARK  103  A    between atoms: _256  and  _257
REMARK  104  A    between atoms: _257  and  _258
REMARK  105  A    between atoms: _260  and  _262
REMARK  106  A    between atoms: _262  and  _263
REMARK  107  A    between atoms: _262  and  _265
REMARK  108  A    between atoms: _268  and  _270
REMARK  109  A    between atoms: _270  and  _271
REMARK  110  A    between atoms: _270  and  _273
REMARK  111  A    between atoms: _276  and  _278
REMARK  112  A    between atoms: _278  and  _279
REMARK  113  A    between atoms: _278  and  _281
REMARK  114  A    between atoms: _281  and  _282
REMARK  115  A    between atoms: _285  and  _287
REMARK  116  A    between atoms: _287  and  _288
REMARK  117  A    between atoms: _287  and  _290
REMARK  118  A    between atoms: _293  and  _295
REMARK  119  A    between atoms: _295  and  _296
REMARK  120  A    between atoms: _295  and  _298
REMARK  121  A    between atoms: _298  and  _299
REMARK  122  A    between atoms: _299  and  _300
REMARK  123  A    between atoms: _300  and  _301
REMARK  124  A    between atoms: _310  and  _312
REMARK  125  A    between atoms: _312  and  _313
REMARK  126  A    between atoms: _312  and  _315
REMARK  127  A    between atoms: _315  and  _316
REMARK  128  A    between atoms: _316  and  _317
REMARK  129  A    between atoms: _319  and  _321
REMARK  130  A    between atoms: _321  and  _322
REMARK  131  A    between atoms: _321  and  _324
REMARK  132  A    between atoms: _326  and  _328
REMARK  133  A    between atoms: _328  and  _329
REMARK  134  A    between atoms: _328  and  _331
REMARK  135  A    between atoms: _331  and  _332
REMARK  136  A    between atoms: _332  and  _333
REMARK  137  A    between atoms: _333  and  _334
REMARK  138  A    between atoms: _343  and  _345
REMARK  139  A    between atoms: _345  and  _346
REMARK  140  A    between atoms: _349  and  _351
REMARK  141  A    between atoms: _351  and  _352
REMARK  142  A    between atoms: _351  and  _354
REMARK  143  A    between atoms: _354  and  _355
REMARK  144  A    between atoms: _360  and  _361
REMARK  145  A    between atoms: _363  and  _365
REMARK  146  A    between atoms: _365  and  _366
REMARK  147  A    between atoms: _365  and  _368
REMARK  148  A    between atoms: _368  and  _369
REMARK  149  A    between atoms: _374  and  _376
REMARK  150  A    between atoms: _376  and  _377
REMARK  151  A    between atoms: _376  and  _379
REMARK  152  A    between atoms: _379  and  _380
REMARK  153  A    between atoms: _380  and  _381
REMARK  154  A    between atoms: _381  and  _382
REMARK  155  A    between atoms: _391  and  _393
REMARK  156  A    between atoms: _393  and  _394
REMARK  157  A    between atoms: _393  and  _396
REMARK  158  A    between atoms: _396  and  _397
REMARK  159  A    between atoms: _400  and  _402
REMARK  160  A    between atoms: _402  and  _403
REMARK  161  A    between atoms: _402  and  _405
REMARK  162  A    between atoms: _408  and  _410
REMARK  163  A    between atoms: _410  and  _411
REMARK  164  A    between atoms: _410  and  _413
REMARK  165  A    between atoms: _413  and  _414
REMARK  166  A    between atoms: _420  and  _422
REMARK  167  A    between atoms: _422  and  _423
REMARK  168  A    between atoms: _422  and  _425
REMARK  169  A    between atoms: _425  and  _426
REMARK  170  A    between atoms: _432  and  _434
REMARK  171  A    between atoms: _434  and  _435
REMARK  172  A    between atoms: _434  and  _437
REMARK  173  A    between atoms: _437  and  _438
REMARK  174  A    between atoms: _438  and  _439
REMARK  175  A    between atoms: _442  and  _444
REMARK  176  A    between atoms: _444  and  _445
REMARK  177  A    between atoms: _447  and  _449
REMARK  178  A    between atoms: _449  and  _450
REMARK  179  A    between atoms: _449  and  _452
REMARK  180  A    between atoms: _452  and  _453
REMARK  181  A    between atoms: _453  and  _454
REMARK  182  A    between atoms: _454  and  _455
REMARK  183  A    between atoms: _455  and  _456
REMARK  184  A    between atoms: _460  and  _462
REMARK  185  A    between atoms: _462  and  _463
REMARK  186  A    between atoms: _462  and  _465
REMARK  187  A    between atoms: _465  and  _466
REMARK  188  A    between atoms: _471  and  _472
REMARK  189  A    between atoms: _474  and  _476
REMARK  190  A    between atoms: _476  and  _477
REMARK  191  A    between atoms: _479  and  _481
REMARK  192  A    between atoms: _481  and  _482
REMARK  193  A    between atoms: _484  and  _486
REMARK  194  A    between atoms: _486  and  _487
REMARK  195  A    between atoms: _486  and  _489
REMARK  196  A    between atoms: _489  and  _490
REMARK  197  A    between atoms: _490  and  _491
REMARK  198  A    between atoms: _493  and  _495
REMARK  199  A    between atoms: _495  and  _496
REMARK  200  A    between atoms: _495  and  _498
REMARK  201  A    between atoms: _498  and  _499
REMARK  202  A    between atoms: _502  and  _504
REMARK  203  A    between atoms: _504  and  _505
REMARK  204  A    between atoms: _504  and  _507
REMARK  205  A    between atoms: _507  and  _508
REMARK  206  A    between atoms: _514  and  _516
REMARK  207  A    between atoms: _516  and  _517
REMARK  208  A    between atoms: _516  and  _519
REMARK  209  A    between atoms: _519  and  _520
REMARK  210  A    between atoms: _523  and  _525
REMARK  211  A    between atoms: _525  and  _526
REMARK  212  A    between atoms: _525  and  _528
REMARK  213  A    between atoms: _530  and  _532
REMARK  214  A    between atoms: _532  and  _533
REMARK  215  A    between atoms: _532  and  _535
REMARK  216  A    between atoms: _535  and  _536
REMARK  217  A    between atoms: _539  and  _541
REMARK  218  A    between atoms: _541  and  _542
REMARK  219  A    between atoms: _541  and  _544
REMARK  220  A    between atoms: _544  and  _545
REMARK  221  A    between atoms: _548  and  _550
REMARK  222  A    between atoms: _550  and  _551
REMARK  223  A    between atoms: _550  and  _553
REMARK  224  A    between atoms: _553  and  _554
REMARK  225  A    between atoms: _556  and  _558
REMARK  226  A    between atoms: _558  and  _559
REMARK  227  A    between atoms: _558  and  _561
REMARK  228  A    between atoms: _561  and  _562
REMARK  229  A    between atoms: _564  and  _566
REMARK  230  A    between atoms: _566  and  _567
REMARK  231  A    between atoms: _566  and  _569
REMARK  232  A    between atoms: _569  and  _570
REMARK  233  A    between atoms: _573  and  _575
REMARK  234  A    between atoms: _575  and  _576
REMARK  235  A    between atoms: _575  and  _578
REMARK  236  A    between atoms: _578  and  _579
REMARK  237  A    between atoms: _585  and  _587
REMARK  238  A    between atoms: _587  and  _588
REMARK  239  A    between atoms: _587  and  _590
REMARK  240  A    between atoms: _590  and  _591
REMARK  241  A    between atoms: _594  and  _596
REMARK  242  A    between atoms: _596  and  _597
REMARK  243  A    between atoms: _596  and  _599
REMARK  244  A    between atoms: _599  and  _600
REMARK  245  A    between atoms: _606  and  _608
REMARK  246  A    between atoms: _608  and  _609
REMARK  247  A    between atoms: _608  and  _611
REMARK  248  A    between atoms: _611  and  _612
REMARK  249  A    between atoms: _614  and  _616
REMARK  250  A    between atoms: _616  and  _617
REMARK  251  A    between atoms: _616  and  _619
REMARK  252  A    between atoms: _619  and  _620
REMARK  253  A    between atoms: _625  and  _627
REMARK  254  A    between atoms: _627  and  _628
REMARK  255  A    between atoms: _627  and  _630
REMARK  256  A    between atoms: _630  and  _631
REMARK  257  A    between atoms: _633  and  _635
REMARK  258  A    between atoms: _635  and  _636
REMARK  259  A    between atoms: _635  and  _638
REMARK  260  A    between atoms: _638  and  _639
REMARK  261  A    between atoms: _639  and  _640
REMARK  262  A    between atoms: _643  and  _645
REMARK  263  A    between atoms: _645  and  _646
REMARK  264  A    between atoms: _645  and  _648
REMARK  265  A    between atoms: _648  and  _649
REMARK  266  A    between atoms: _652  and  _654
REMARK  267  A    between atoms: _654  and  _655
REMARK  268  A    between atoms: _654  and  _657
REMARK  269  A    between atoms: _657  and  _658
REMARK  270  A    between atoms: _661  and  _663
REMARK  271  A    between atoms: _663  and  _664
REMARK  272  A    between atoms: _663  and  _666
REMARK  273  A    between atoms: _668  and  _670
REMARK  274  A    between atoms: _670  and  _671
REMARK  275  A    between atoms: _670  and  _673
REMARK  276  A    between atoms: _673  and  _674
REMARK  277  A    between atoms: _674  and  _675
REMARK  278  A    between atoms: _680  and  _682
REMARK  279  A    between atoms: _682  and  _683
REMARK  280  A    between atoms: _682  and  _685
REMARK  281  A    between atoms: _685  and  _686
REMARK  282  A    between atoms: _691  and  _693
REMARK  283  A    between atoms: _693  and  _694
REMARK  284  A    between atoms: _693  and  _696
REMARK  285  A    between atoms: _699  and  _701
REMARK  286  A    between atoms: _701  and  _702
REMARK  287  A    between atoms: _701  and  _704
REMARK  288  A    between atoms: _704  and  _705
REMARK  289  A    between atoms: _705  and  _706
REMARK  290  A    between atoms: _706  and  _707
REMARK  291  A    between atoms: _716  and  _718
REMARK  292  A    between atoms: _718  and  _719
REMARK  293  A    between atoms: _718  and  _721
REMARK  294  A    between atoms: _721  and  _722
REMARK  295  A    between atoms: _725  and  _727
REMARK  296  A    between atoms: _727  and  _728
REMARK  297  A    between atoms: _727  and  _730
REMARK  298  A    between atoms: _730  and  _731
REMARK  299  A    between atoms: _737  and  _739
REMARK  300  A    between atoms: _739  and  _740
REMARK  301  A    between atoms: _739  and  _742
REMARK  302  A    between atoms: _742  and  _743
REMARK  303  A    between atoms: _748  and  _749
REMARK  304  A    between atoms: _751  and  _753
REMARK  305  A    between atoms: _753  and  _754
REMARK  306  A    between atoms: _753  and  _756
REMARK  307  A    between atoms: _756  and  _757
REMARK                            x       y       z     vdW  Elec       q    Type
REMARK                         _______ _______ _______ _____ _____    ______ ____
ROOT
ATOM      1  O   HOH     1      -0.776  27.999  10.727  0.00  0.00    +0.000 OA
ENDROOT
TORSDOF 0
