REMARK  Name = ../refined-set-2016/2avo/2avo_pocket.pdb
REMARK  229 active torsions:
REMARK  status: ('A' for Active; 'I' for Inactive)
REMARK    1  A    between atoms: _1  and  _3
REMARK    2  A    between atoms: _3  and  _4
REMARK    3  A    between atoms: _3  and  _6
REMARK    4  A    between atoms: _6  and  _7
REMARK    5  A    between atoms: _7  and  _8
REMARK    6  A    between atoms: _8  and  _9
REMARK    7  A    between atoms: _18  and  _20
REMARK    8  A    between atoms: _20  and  _21
REMARK    9  A    between atoms: _20  and  _23
REMARK   10  A    between atoms: _23  and  _24
REMARK   11  A    between atoms: _27  and  _29
REMARK   12  A    between atoms: _29  and  _30
REMARK   13  A    between atoms: _29  and  _32
REMARK   14  A    between atoms: _32  and  _33
REMARK   15  A    between atoms: _36  and  _38
REMARK   16  A    between atoms: _38  and  _39
REMARK   17  A    between atoms: _38  and  _41
REMARK   18  A    between atoms: _41  and  _42
REMARK   19  A    between atoms: _45  and  _47
REMARK   20  A    between atoms: _47  and  _48
REMARK   21  A    between atoms: _47  and  _50
REMARK   22  A    between atoms: _50  and  _51
REMARK   23  A    between atoms: _54  and  _56
REMARK   24  A    between atoms: _56  and  _57
REMARK   25  A    between atoms: _56  and  _59
REMARK   26  A    between atoms: _59  and  _60
REMARK   27  A    between atoms: _63  and  _65
REMARK   28  A    between atoms: _65  and  _66
REMARK   29  A    between atoms: _68  and  _70
REMARK   30  A    between atoms: _70  and  _71
REMARK   31  A    between atoms: _74  and  _76
REMARK   32  A    between atoms: _76  and  _77
REMARK   33  A    between atoms: _76  and  _79
REMARK   34  A    between atoms: _79  and  _80
REMARK   35  A    between atoms: _83  and  _85
REMARK   36  A    between atoms: _85  and  _86
REMARK   37  A    between atoms: _85  and  _88
REMARK   38  A    between atoms: _88  and  _89
REMARK   39  A    between atoms: _92  and  _94
REMARK   40  A    between atoms: _94  and  _95
REMARK   41  A    between atoms: _94  and  _97
REMARK   42  A    between atoms: _97  and  _98
REMARK   43  A    between atoms: _101  and  _103
REMARK   44  A    between atoms: _103  and  _104
REMARK   45  A    between atoms: _103  and  _106
REMARK   46  A    between atoms: _109  and  _111
REMARK   47  A    between atoms: _111  and  _112
REMARK   48  A    between atoms: _111  and  _114
REMARK   49  A    between atoms: _114  and  _115
REMARK   50  A    between atoms: _115  and  _116
REMARK   51  A    between atoms: _118  and  _120
REMARK   52  A    between atoms: _120  and  _121
REMARK   53  A    between atoms: _120  and  _123
REMARK   54  A    between atoms: _123  and  _124
REMARK   55  A    between atoms: _127  and  _129
REMARK   56  A    between atoms: _129  and  _130
REMARK   57  A    between atoms: _132  and  _134
REMARK   58  A    between atoms: _134  and  _135
REMARK   59  A    between atoms: _137  and  _139
REMARK   60  A    between atoms: _139  and  _140
REMARK   61  A    between atoms: _139  and  _142
REMARK   62  A    between atoms: _142  and  _143
REMARK   63  A    between atoms: _146  and  _148
REMARK   64  A    between atoms: _148  and  _149
REMARK   65  A    between atoms: _151  and  _153
REMARK   66  A    between atoms: _153  and  _154
REMARK   67  A    between atoms: _156  and  _158
REMARK   68  A    between atoms: _158  and  _159
REMARK   69  A    between atoms: _158  and  _161
REMARK   70  A    between atoms: _161  and  _162
REMARK   71  A    between atoms: _168  and  _170
REMARK   72  A    between atoms: _170  and  _171
REMARK   73  A    between atoms: _170  and  _173
REMARK   74  A    between atoms: _173  and  _174
REMARK   75  A    between atoms: _177  and  _179
REMARK   76  A    between atoms: _179  and  _180
REMARK   77  A    between atoms: _179  and  _182
REMARK   78  A    between atoms: _185  and  _187
REMARK   79  A    between atoms: _187  and  _188
REMARK   80  A    between atoms: _187  and  _190
REMARK   81  A    between atoms: _190  and  _191
REMARK   82  A    between atoms: _194  and  _196
REMARK   83  A    between atoms: _196  and  _197
REMARK   84  A    between atoms: _196  and  _199
REMARK   85  A    between atoms: _199  and  _200
REMARK   86  A    between atoms: _204  and  _205
REMARK   87  A    between atoms: _210  and  _212
REMARK   88  A    between atoms: _212  and  _213
REMARK   89  A    between atoms: _212  and  _215
REMARK   90  A    between atoms: _218  and  _220
REMARK   91  A    between atoms: _220  and  _221
REMARK   92  A    between atoms: _220  and  _223
REMARK   93  A    between atoms: _223  and  _224
REMARK   94  A    between atoms: _229  and  _231
REMARK   95  A    between atoms: _231  and  _232
REMARK   96  A    between atoms: _231  and  _234
REMARK   97  A    between atoms: _234  and  _235
REMARK   98  A    between atoms: _238  and  _240
REMARK   99  A    between atoms: _240  and  _241
REMARK  100  A    between atoms: _240  and  _243
REMARK  101  A    between atoms: _243  and  _244
REMARK  102  A    between atoms: _247  and  _249
REMARK  103  A    between atoms: _249  and  _250
REMARK  104  A    between atoms: _252  and  _254
REMARK  105  A    between atoms: _254  and  _255
REMARK  106  A    between atoms: _254  and  _257
REMARK  107  A    between atoms: _257  and  _258
REMARK  108  A    between atoms: _258  and  _259
REMARK  109  A    between atoms: _259  and  _260
REMARK  110  A    between atoms: _269  and  _271
REMARK  111  A    between atoms: _271  and  _272
REMARK  112  A    between atoms: _271  and  _274
REMARK  113  A    between atoms: _274  and  _275
REMARK  114  A    between atoms: _280  and  _282
REMARK  115  A    between atoms: _282  and  _283
REMARK  116  A    between atoms: _282  and  _285
REMARK  117  A    between atoms: _285  and  _286
REMARK  118  A    between atoms: _286  and  _287
REMARK  119  A    between atoms: _287  and  _288
REMARK  120  A    between atoms: _297  and  _299
REMARK  121  A    between atoms: _299  and  _300
REMARK  122  A    between atoms: _299  and  _302
REMARK  123  A    between atoms: _302  and  _303
REMARK  124  A    between atoms: _306  and  _308
REMARK  125  A    between atoms: _308  and  _309
REMARK  126  A    between atoms: _308  and  _311
REMARK  127  A    between atoms: _311  and  _312
REMARK  128  A    between atoms: _315  and  _317
REMARK  129  A    between atoms: _317  and  _318
REMARK  130  A    between atoms: _317  and  _320
REMARK  131  A    between atoms: _320  and  _321
REMARK  132  A    between atoms: _324  and  _326
REMARK  133  A    between atoms: _326  and  _327
REMARK  134  A    between atoms: _326  and  _329
REMARK  135  A    between atoms: _329  and  _330
REMARK  136  A    between atoms: _333  and  _335
REMARK  137  A    between atoms: _335  and  _336
REMARK  138  A    between atoms: _338  and  _340
REMARK  139  A    between atoms: _340  and  _341
REMARK  140  A    between atoms: _344  and  _346
REMARK  141  A    between atoms: _346  and  _347
REMARK  142  A    between atoms: _346  and  _349
REMARK  143  A    between atoms: _349  and  _350
REMARK  144  A    between atoms: _353  and  _355
REMARK  145  A    between atoms: _355  and  _356
REMARK  146  A    between atoms: _355  and  _358
REMARK  147  A    between atoms: _358  and  _359
REMARK  148  A    between atoms: _362  and  _364
REMARK  149  A    between atoms: _364  and  _365
REMARK  150  A    between atoms: _364  and  _367
REMARK  151  A    between atoms: _367  and  _368
REMARK  152  A    between atoms: _371  and  _373
REMARK  153  A    between atoms: _373  and  _374
REMARK  154  A    between atoms: _373  and  _376
REMARK  155  A    between atoms: _379  and  _381
REMARK  156  A    between atoms: _381  and  _382
REMARK  157  A    between atoms: _381  and  _384
REMARK  158  A    between atoms: _384  and  _385
REMARK  159  A    between atoms: _388  and  _390
REMARK  160  A    between atoms: _390  and  _391
REMARK  161  A    between atoms: _390  and  _393
REMARK  162  A    between atoms: _393  and  _394
REMARK  163  A    between atoms: _394  and  _395
REMARK  164  A    between atoms: _395  and  _396
REMARK  165  A    between atoms: _396  and  _397
REMARK  166  A    between atoms: _401  and  _403
REMARK  167  A    between atoms: _403  and  _404
REMARK  168  A    between atoms: _403  and  _406
REMARK  169  A    between atoms: _406  and  _407
REMARK  170  A    between atoms: _407  and  _408
REMARK  171  A    between atoms: _410  and  _412
REMARK  172  A    between atoms: _412  and  _413
REMARK  173  A    between atoms: _412  and  _415
REMARK  174  A    between atoms: _415  and  _416
REMARK  175  A    between atoms: _419  and  _421
REMARK  176  A    between atoms: _421  and  _422
REMARK  177  A    between atoms: _424  and  _426
REMARK  178  A    between atoms: _426  and  _427
REMARK  179  A    between atoms: _429  and  _431
REMARK  180  A    between atoms: _431  and  _432
REMARK  181  A    between atoms: _431  and  _434
REMARK  182  A    between atoms: _434  and  _435
REMARK  183  A    between atoms: _438  and  _440
REMARK  184  A    between atoms: _440  and  _441
REMARK  185  A    between atoms: _443  and  _445
REMARK  186  A    between atoms: _445  and  _446
REMARK  187  A    between atoms: _448  and  _450
REMARK  188  A    between atoms: _450  and  _451
REMARK  189  A    between atoms: _450  and  _453
REMARK  190  A    between atoms: _453  and  _454
REMARK  191  A    between atoms: _457  and  _459
REMARK  192  A    between atoms: _459  and  _460
REMARK  193  A    between atoms: _459  and  _462
REMARK  194  A    between atoms: _465  and  _467
REMARK  195  A    between atoms: _467  and  _468
REMARK  196  A    between atoms: _467  and  _470
REMARK  197  A    between atoms: _470  and  _471
REMARK  198  A    between atoms: _474  and  _476
REMARK  199  A    between atoms: _476  and  _477
REMARK  200  A    between atoms: _476  and  _479
REMARK  201  A    between atoms: _479  and  _480
REMARK  202  A    between atoms: _484  and  _485
REMARK  203  A    between atoms: _490  and  _492
REMARK  204  A    between atoms: _492  and  _493
REMARK  205  A    between atoms: _492  and  _495
REMARK  206  A    between atoms: _498  and  _500
REMARK  207  A    between atoms: _500  and  _501
REMARK  208  A    between atoms: _500  and  _503
REMARK  209  A    between atoms: _503  and  _504
REMARK  210  A    between atoms: _509  and  _511
REMARK  211  A    between atoms: _511  and  _512
REMARK  212  A    between atoms: _511  and  _514
REMARK  213  A    between atoms: _514  and  _515
REMARK  214  A    between atoms: _518  and  _520
REMARK  215  A    between atoms: _520  and  _521
REMARK  216  A    between atoms: _520  and  _523
REMARK  217  A    between atoms: _523  and  _524
REMARK  218  A    between atoms: _527  and  _529
REMARK  219  A    between atoms: _529  and  _530
REMARK  220  A    between atoms: _532  and  _534
REMARK  221  A    between atoms: _534  and  _535
REMARK  222  A    between atoms: _534  and  _537
REMARK  223  A    between atoms: _537  and  _538
REMARK  224  A    between atoms: _538  and  _539
REMARK  225  A    between atoms: _539  and  _540
REMARK  226  A    between atoms: _549  and  _551
REMARK  227  A    between atoms: _551  and  _552
REMARK  228  A    between atoms: _551  and  _554
REMARK  229  A    between atoms: _554  and  _555
REMARK                            x       y       z     vdW  Elec       q    Type
REMARK                         _______ _______ _______ _____ _____    ______ ____
ROOT
ATOM      1  NE  ARG A   1      19.235  21.089  11.305  0.00  0.00    -0.265 N 
ATOM      2  HE  ARG A   1      20.249  21.122  11.535  0.00  0.00    +0.259 HD
ATOM      3  CZ  ARG A   1      18.809  21.647  10.177  0.00  0.00    +0.342 C 
ATOM      4  NH2 ARG A   1      17.553  21.586   9.842  0.00  0.00    -0.292 N 
ATOM      5 HH21 ARG A   1      16.873  21.097  10.459  0.00  0.00    +0.255 HD
ATOM      6 HH22 ARG A   1      17.229  22.026   8.957  0.00  0.00    +0.255 HD
ATOM      7  NH1 ARG A   1      19.715  22.246   9.403  0.00  0.00    -0.292 N 
ATOM      8 HH11 ARG A   1      20.714  22.264   9.691  0.00  0.00    +0.255 HD
ATOM      9 HH12 ARG A   1      19.422  22.695   8.512  0.00  0.00    +0.255 HD
ENDROOT
BRANCH   1  10
ATOM     10  CD  ARG A   1      18.315  20.430  12.232  0.00  0.00    +0.174 C 
BRANCH  10  11
ATOM     11  CG  ARG A   1      19.119  19.807  13.358  0.00  0.00    +0.045 C 
BRANCH  11  12
ATOM     12  CB  ARG A   1      18.185  19.185  14.396  0.00  0.00    +0.029 C 
BRANCH  12  13
ATOM     13  CA  ARG A   1      18.948  18.552  15.563  0.00  0.00    +0.133 C 
BRANCH  13  14
ATOM     14  N   ARG A   1      19.700  17.380  15.124  0.00  0.00    -0.239 NA
ATOM     15  H   ARG A   1      19.731  17.130  14.115  0.00  0.00    +0.142 HD
ENDBRANCH  13  14
BRANCH  13  16
ATOM     16  C   ARG A   1      17.962  18.178  16.663  0.00  0.00    +0.224 C 
ATOM     17  O   ARG A   1      17.234  17.184  16.536  0.00  0.00    -0.287 OA
ENDBRANCH  13  16
ENDBRANCH  12  13
ENDBRANCH  11  12
ENDBRANCH  10  11
ENDBRANCH   1  10
TORSDOF 6
REMARK  Name = ../refined-set-2016/2avo/2avo_pocket.pdb
REMARK  229 active torsions:
REMARK  status: ('A' for Active; 'I' for Inactive)
REMARK    1  A    between atoms: _1  and  _3
REMARK    2  A    between atoms: _3  and  _4
REMARK    3  A    between atoms: _3  and  _6
REMARK    4  A    between atoms: _6  and  _7
REMARK    5  A    between atoms: _7  and  _8
REMARK    6  A    between atoms: _8  and  _9
REMARK    7  A    between atoms: _18  and  _20
REMARK    8  A    between atoms: _20  and  _21
REMARK    9  A    between atoms: _20  and  _23
REMARK   10  A    between atoms: _23  and  _24
REMARK   11  A    between atoms: _27  and  _29
REMARK   12  A    between atoms: _29  and  _30
REMARK   13  A    between atoms: _29  and  _32
REMARK   14  A    between atoms: _32  and  _33
REMARK   15  A    between atoms: _36  and  _38
REMARK   16  A    between atoms: _38  and  _39
REMARK   17  A    between atoms: _38  and  _41
REMARK   18  A    between atoms: _41  and  _42
REMARK   19  A    between atoms: _45  and  _47
REMARK   20  A    between atoms: _47  and  _48
REMARK   21  A    between atoms: _47  and  _50
REMARK   22  A    between atoms: _50  and  _51
REMARK   23  A    between atoms: _54  and  _56
REMARK   24  A    between atoms: _56  and  _57
REMARK   25  A    between atoms: _56  and  _59
REMARK   26  A    between atoms: _59  and  _60
REMARK   27  A    between atoms: _63  and  _65
REMARK   28  A    between atoms: _65  and  _66
REMARK   29  A    between atoms: _68  and  _70
REMARK   30  A    between atoms: _70  and  _71
REMARK   31  A    between atoms: _74  and  _76
REMARK   32  A    between atoms: _76  and  _77
REMARK   33  A    between atoms: _76  and  _79
REMARK   34  A    between atoms: _79  and  _80
REMARK   35  A    between atoms: _83  and  _85
REMARK   36  A    between atoms: _85  and  _86
REMARK   37  A    between atoms: _85  and  _88
REMARK   38  A    between atoms: _88  and  _89
REMARK   39  A    between atoms: _92  and  _94
REMARK   40  A    between atoms: _94  and  _95
REMARK   41  A    between atoms: _94  and  _97
REMARK   42  A    between atoms: _97  and  _98
REMARK   43  A    between atoms: _101  and  _103
REMARK   44  A    between atoms: _103  and  _104
REMARK   45  A    between atoms: _103  and  _106
REMARK   46  A    between atoms: _109  and  _111
REMARK   47  A    between atoms: _111  and  _112
REMARK   48  A    between atoms: _111  and  _114
REMARK   49  A    between atoms: _114  and  _115
REMARK   50  A    between atoms: _115  and  _116
REMARK   51  A    between atoms: _118  and  _120
REMARK   52  A    between atoms: _120  and  _121
REMARK   53  A    between atoms: _120  and  _123
REMARK   54  A    between atoms: _123  and  _124
REMARK   55  A    between atoms: _127  and  _129
REMARK   56  A    between atoms: _129  and  _130
REMARK   57  A    between atoms: _132  and  _134
REMARK   58  A    between atoms: _134  and  _135
REMARK   59  A    between atoms: _137  and  _139
REMARK   60  A    between atoms: _139  and  _140
REMARK   61  A    between atoms: _139  and  _142
REMARK   62  A    between atoms: _142  and  _143
REMARK   63  A    between atoms: _146  and  _148
REMARK   64  A    between atoms: _148  and  _149
REMARK   65  A    between atoms: _151  and  _153
REMARK   66  A    between atoms: _153  and  _154
REMARK   67  A    between atoms: _156  and  _158
REMARK   68  A    between atoms: _158  and  _159
REMARK   69  A    between atoms: _158  and  _161
REMARK   70  A    between atoms: _161  and  _162
REMARK   71  A    between atoms: _168  and  _170
REMARK   72  A    between atoms: _170  and  _171
REMARK   73  A    between atoms: _170  and  _173
REMARK   74  A    between atoms: _173  and  _174
REMARK   75  A    between atoms: _177  and  _179
REMARK   76  A    between atoms: _179  and  _180
REMARK   77  A    between atoms: _179  and  _182
REMARK   78  A    between atoms: _185  and  _187
REMARK   79  A    between atoms: _187  and  _188
REMARK   80  A    between atoms: _187  and  _190
REMARK   81  A    between atoms: _190  and  _191
REMARK   82  A    between atoms: _194  and  _196
REMARK   83  A    between atoms: _196  and  _197
REMARK   84  A    between atoms: _196  and  _199
REMARK   85  A    between atoms: _199  and  _200
REMARK   86  A    between atoms: _204  and  _205
REMARK   87  A    between atoms: _210  and  _212
REMARK   88  A    between atoms: _212  and  _213
REMARK   89  A    between atoms: _212  and  _215
REMARK   90  A    between atoms: _218  and  _220
REMARK   91  A    between atoms: _220  and  _221
REMARK   92  A    between atoms: _220  and  _223
REMARK   93  A    between atoms: _223  and  _224
REMARK   94  A    between atoms: _229  and  _231
REMARK   95  A    between atoms: _231  and  _232
REMARK   96  A    between atoms: _231  and  _234
REMARK   97  A    between atoms: _234  and  _235
REMARK   98  A    between atoms: _238  and  _240
REMARK   99  A    between atoms: _240  and  _241
REMARK  100  A    between atoms: _240  and  _243
REMARK  101  A    between atoms: _243  and  _244
REMARK  102  A    between atoms: _247  and  _249
REMARK  103  A    between atoms: _249  and  _250
REMARK  104  A    between atoms: _252  and  _254
REMARK  105  A    between atoms: _254  and  _255
REMARK  106  A    between atoms: _254  and  _257
REMARK  107  A    between atoms: _257  and  _258
REMARK  108  A    between atoms: _258  and  _259
REMARK  109  A    between atoms: _259  and  _260
REMARK  110  A    between atoms: _269  and  _271
REMARK  111  A    between atoms: _271  and  _272
REMARK  112  A    between atoms: _271  and  _274
REMARK  113  A    between atoms: _274  and  _275
REMARK  114  A    between atoms: _280  and  _282
REMARK  115  A    between atoms: _282  and  _283
REMARK  116  A    between atoms: _282  and  _285
REMARK  117  A    between atoms: _285  and  _286
REMARK  118  A    between atoms: _286  and  _287
REMARK  119  A    between atoms: _287  and  _288
REMARK  120  A    between atoms: _297  and  _299
REMARK  121  A    between atoms: _299  and  _300
REMARK  122  A    between atoms: _299  and  _302
REMARK  123  A    between atoms: _302  and  _303
REMARK  124  A    between atoms: _306  and  _308
REMARK  125  A    between atoms: _308  and  _309
REMARK  126  A    between atoms: _308  and  _311
REMARK  127  A    between atoms: _311  and  _312
REMARK  128  A    between atoms: _315  and  _317
REMARK  129  A    between atoms: _317  and  _318
REMARK  130  A    between atoms: _317  and  _320
REMARK  131  A    between atoms: _320  and  _321
REMARK  132  A    between atoms: _324  and  _326
REMARK  133  A    between atoms: _326  and  _327
REMARK  134  A    between atoms: _326  and  _329
REMARK  135  A    between atoms: _329  and  _330
REMARK  136  A    between atoms: _333  and  _335
REMARK  137  A    between atoms: _335  and  _336
REMARK  138  A    between atoms: _338  and  _340
REMARK  139  A    between atoms: _340  and  _341
REMARK  140  A    between atoms: _344  and  _346
REMARK  141  A    between atoms: _346  and  _347
REMARK  142  A    between atoms: _346  and  _349
REMARK  143  A    between atoms: _349  and  _350
REMARK  144  A    between atoms: _353  and  _355
REMARK  145  A    between atoms: _355  and  _356
REMARK  146  A    between atoms: _355  and  _358
REMARK  147  A    between atoms: _358  and  _359
REMARK  148  A    between atoms: _362  and  _364
REMARK  149  A    between atoms: _364  and  _365
REMARK  150  A    between atoms: _364  and  _367
REMARK  151  A    between atoms: _367  and  _368
REMARK  152  A    between atoms: _371  and  _373
REMARK  153  A    between atoms: _373  and  _374
REMARK  154  A    between atoms: _373  and  _376
REMARK  155  A    between atoms: _379  and  _381
REMARK  156  A    between atoms: _381  and  _382
REMARK  157  A    between atoms: _381  and  _384
REMARK  158  A    between atoms: _384  and  _385
REMARK  159  A    between atoms: _388  and  _390
REMARK  160  A    between atoms: _390  and  _391
REMARK  161  A    between atoms: _390  and  _393
REMARK  162  A    between atoms: _393  and  _394
REMARK  163  A    between atoms: _394  and  _395
REMARK  164  A    between atoms: _395  and  _396
REMARK  165  A    between atoms: _396  and  _397
REMARK  166  A    between atoms: _401  and  _403
REMARK  167  A    between atoms: _403  and  _404
REMARK  168  A    between atoms: _403  and  _406
REMARK  169  A    between atoms: _406  and  _407
REMARK  170  A    between atoms: _407  and  _408
REMARK  171  A    between atoms: _410  and  _412
REMARK  172  A    between atoms: _412  and  _413
REMARK  173  A    between atoms: _412  and  _415
REMARK  174  A    between atoms: _415  and  _416
REMARK  175  A    between atoms: _419  and  _421
REMARK  176  A    between atoms: _421  and  _422
REMARK  177  A    between atoms: _424  and  _426
REMARK  178  A    between atoms: _426  and  _427
REMARK  179  A    between atoms: _429  and  _431
REMARK  180  A    between atoms: _431  and  _432
REMARK  181  A    between atoms: _431  and  _434
REMARK  182  A    between atoms: _434  and  _435
REMARK  183  A    between atoms: _438  and  _440
REMARK  184  A    between atoms: _440  and  _441
REMARK  185  A    between atoms: _443  and  _445
REMARK  186  A    between atoms: _445  and  _446
REMARK  187  A    between atoms: _448  and  _450
REMARK  188  A    between atoms: _450  and  _451
REMARK  189  A    between atoms: _450  and  _453
REMARK  190  A    between atoms: _453  and  _454
REMARK  191  A    between atoms: _457  and  _459
REMARK  192  A    between atoms: _459  and  _460
REMARK  193  A    between atoms: _459  and  _462
REMARK  194  A    between atoms: _465  and  _467
REMARK  195  A    between atoms: _467  and  _468
REMARK  196  A    between atoms: _467  and  _470
REMARK  197  A    between atoms: _470  and  _471
REMARK  198  A    between atoms: _474  and  _476
REMARK  199  A    between atoms: _476  and  _477
REMARK  200  A    between atoms: _476  and  _479
REMARK  201  A    between atoms: _479  and  _480
REMARK  202  A    between atoms: _484  and  _485
REMARK  203  A    between atoms: _490  and  _492
REMARK  204  A    between atoms: _492  and  _493
REMARK  205  A    between atoms: _492  and  _495
REMARK  206  A    between atoms: _498  and  _500
REMARK  207  A    between atoms: _500  and  _501
REMARK  208  A    between atoms: _500  and  _503
REMARK  209  A    between atoms: _503  and  _504
REMARK  210  A    between atoms: _509  and  _511
REMARK  211  A    between atoms: _511  and  _512
REMARK  212  A    between atoms: _511  and  _514
REMARK  213  A    between atoms: _514  and  _515
REMARK  214  A    between atoms: _518  and  _520
REMARK  215  A    between atoms: _520  and  _521
REMARK  216  A    between atoms: _520  and  _523
REMARK  217  A    between atoms: _523  and  _524
REMARK  218  A    between atoms: _527  and  _529
REMARK  219  A    between atoms: _529  and  _530
REMARK  220  A    between atoms: _532  and  _534
REMARK  221  A    between atoms: _534  and  _535
REMARK  222  A    between atoms: _534  and  _537
REMARK  223  A    between atoms: _537  and  _538
REMARK  224  A    between atoms: _538  and  _539
REMARK  225  A    between atoms: _539  and  _540
REMARK  226  A    between atoms: _549  and  _551
REMARK  227  A    between atoms: _551  and  _552
REMARK  228  A    between atoms: _551  and  _554
REMARK  229  A    between atoms: _554  and  _555
REMARK                            x       y       z     vdW  Elec       q    Type
REMARK                         _______ _______ _______ _____ _____    ______ ____
ROOT
ATOM      1  CA  LEU A   1      13.476  18.574  17.543  0.00  0.00    +0.133 C 
ENDROOT
BRANCH   1   2
ATOM      2  N   LEU A   1      14.842  18.279  17.909  0.00  0.00    -0.239 NA
ATOM      3  H   LEU A   1      15.255  17.379  17.592  0.00  0.00    +0.142 HD
ENDBRANCH   1   2
BRANCH   1   4
ATOM      4  C   LEU A   1      12.488  17.923  18.507  0.00  0.00    +0.224 C 
ATOM      5  O   LEU A   1      12.669  16.752  18.902  0.00  0.00    -0.287 OA
ENDBRANCH   1   4
BRANCH   1   6
ATOM      6  CB  LEU A   1      13.183  18.058  16.113  0.00  0.00    +0.025 C 
BRANCH   6   7
ATOM      7  CG  LEU A   1      14.067  18.664  15.038  0.00  0.00    +0.002 C 
ATOM      8  CD2 LEU A   1      13.729  20.142  14.897  0.00  0.00    +0.000 C 
ATOM      9  CD1 LEU A   1      13.823  17.990  13.708  0.00  0.00    +0.000 C 
ENDBRANCH   6   7
ENDBRANCH   1   6
TORSDOF 4
REMARK  Name = ../refined-set-2016/2avo/2avo_pocket.pdb
REMARK  229 active torsions:
REMARK  status: ('A' for Active; 'I' for Inactive)
REMARK    1  A    between atoms: _1  and  _3
REMARK    2  A    between atoms: _3  and  _4
REMARK    3  A    between atoms: _3  and  _6
REMARK    4  A    between atoms: _6  and  _7
REMARK    5  A    between atoms: _7  and  _8
REMARK    6  A    between atoms: _8  and  _9
REMARK    7  A    between atoms: _18  and  _20
REMARK    8  A    between atoms: _20  and  _21
REMARK    9  A    between atoms: _20  and  _23
REMARK   10  A    between atoms: _23  and  _24
REMARK   11  A    between atoms: _27  and  _29
REMARK   12  A    between atoms: _29  and  _30
REMARK   13  A    between atoms: _29  and  _32
REMARK   14  A    between atoms: _32  and  _33
REMARK   15  A    between atoms: _36  and  _38
REMARK   16  A    between atoms: _38  and  _39
REMARK   17  A    between atoms: _38  and  _41
REMARK   18  A    between atoms: _41  and  _42
REMARK   19  A    between atoms: _45  and  _47
REMARK   20  A    between atoms: _47  and  _48
REMARK   21  A    between atoms: _47  and  _50
REMARK   22  A    between atoms: _50  and  _51
REMARK   23  A    between atoms: _54  and  _56
REMARK   24  A    between atoms: _56  and  _57
REMARK   25  A    between atoms: _56  and  _59
REMARK   26  A    between atoms: _59  and  _60
REMARK   27  A    between atoms: _63  and  _65
REMARK   28  A    between atoms: _65  and  _66
REMARK   29  A    between atoms: _68  and  _70
REMARK   30  A    between atoms: _70  and  _71
REMARK   31  A    between atoms: _74  and  _76
REMARK   32  A    between atoms: _76  and  _77
REMARK   33  A    between atoms: _76  and  _79
REMARK   34  A    between atoms: _79  and  _80
REMARK   35  A    between atoms: _83  and  _85
REMARK   36  A    between atoms: _85  and  _86
REMARK   37  A    between atoms: _85  and  _88
REMARK   38  A    between atoms: _88  and  _89
REMARK   39  A    between atoms: _92  and  _94
REMARK   40  A    between atoms: _94  and  _95
REMARK   41  A    between atoms: _94  and  _97
REMARK   42  A    between atoms: _97  and  _98
REMARK   43  A    between atoms: _101  and  _103
REMARK   44  A    between atoms: _103  and  _104
REMARK   45  A    between atoms: _103  and  _106
REMARK   46  A    between atoms: _109  and  _111
REMARK   47  A    between atoms: _111  and  _112
REMARK   48  A    between atoms: _111  and  _114
REMARK   49  A    between atoms: _114  and  _115
REMARK   50  A    between atoms: _115  and  _116
REMARK   51  A    between atoms: _118  and  _120
REMARK   52  A    between atoms: _120  and  _121
REMARK   53  A    between atoms: _120  and  _123
REMARK   54  A    between atoms: _123  and  _124
REMARK   55  A    between atoms: _127  and  _129
REMARK   56  A    between atoms: _129  and  _130
REMARK   57  A    between atoms: _132  and  _134
REMARK   58  A    between atoms: _134  and  _135
REMARK   59  A    between atoms: _137  and  _139
REMARK   60  A    between atoms: _139  and  _140
REMARK   61  A    between atoms: _139  and  _142
REMARK   62  A    between atoms: _142  and  _143
REMARK   63  A    between atoms: _146  and  _148
REMARK   64  A    between atoms: _148  and  _149
REMARK   65  A    between atoms: _151  and  _153
REMARK   66  A    between atoms: _153  and  _154
REMARK   67  A    between atoms: _156  and  _158
REMARK   68  A    between atoms: _158  and  _159
REMARK   69  A    between atoms: _158  and  _161
REMARK   70  A    between atoms: _161  and  _162
REMARK   71  A    between atoms: _168  and  _170
REMARK   72  A    between atoms: _170  and  _171
REMARK   73  A    between atoms: _170  and  _173
REMARK   74  A    between atoms: _173  and  _174
REMARK   75  A    between atoms: _177  and  _179
REMARK   76  A    between atoms: _179  and  _180
REMARK   77  A    between atoms: _179  and  _182
REMARK   78  A    between atoms: _185  and  _187
REMARK   79  A    between atoms: _187  and  _188
REMARK   80  A    between atoms: _187  and  _190
REMARK   81  A    between atoms: _190  and  _191
REMARK   82  A    between atoms: _194  and  _196
REMARK   83  A    between atoms: _196  and  _197
REMARK   84  A    between atoms: _196  and  _199
REMARK   85  A    between atoms: _199  and  _200
REMARK   86  A    between atoms: _204  and  _205
REMARK   87  A    between atoms: _210  and  _212
REMARK   88  A    between atoms: _212  and  _213
REMARK   89  A    between atoms: _212  and  _215
REMARK   90  A    between atoms: _218  and  _220
REMARK   91  A    between atoms: _220  and  _221
REMARK   92  A    between atoms: _220  and  _223
REMARK   93  A    between atoms: _223  and  _224
REMARK   94  A    between atoms: _229  and  _231
REMARK   95  A    between atoms: _231  and  _232
REMARK   96  A    between atoms: _231  and  _234
REMARK   97  A    between atoms: _234  and  _235
REMARK   98  A    between atoms: _238  and  _240
REMARK   99  A    between atoms: _240  and  _241
REMARK  100  A    between atoms: _240  and  _243
REMARK  101  A    between atoms: _243  and  _244
REMARK  102  A    between atoms: _247  and  _249
REMARK  103  A    between atoms: _249  and  _250
REMARK  104  A    between atoms: _252  and  _254
REMARK  105  A    between atoms: _254  and  _255
REMARK  106  A    between atoms: _254  and  _257
REMARK  107  A    between atoms: _257  and  _258
REMARK  108  A    between atoms: _258  and  _259
REMARK  109  A    between atoms: _259  and  _260
REMARK  110  A    between atoms: _269  and  _271
REMARK  111  A    between atoms: _271  and  _272
REMARK  112  A    between atoms: _271  and  _274
REMARK  113  A    between atoms: _274  and  _275
REMARK  114  A    between atoms: _280  and  _282
REMARK  115  A    between atoms: _282  and  _283
REMARK  116  A    between atoms: _282  and  _285
REMARK  117  A    between atoms: _285  and  _286
REMARK  118  A    between atoms: _286  and  _287
REMARK  119  A    between atoms: _287  and  _288
REMARK  120  A    between atoms: _297  and  _299
REMARK  121  A    between atoms: _299  and  _300
REMARK  122  A    between atoms: _299  and  _302
REMARK  123  A    between atoms: _302  and  _303
REMARK  124  A    between atoms: _306  and  _308
REMARK  125  A    between atoms: _308  and  _309
REMARK  126  A    between atoms: _308  and  _311
REMARK  127  A    between atoms: _311  and  _312
REMARK  128  A    between atoms: _315  and  _317
REMARK  129  A    between atoms: _317  and  _318
REMARK  130  A    between atoms: _317  and  _320
REMARK  131  A    between atoms: _320  and  _321
REMARK  132  A    between atoms: _324  and  _326
REMARK  133  A    between atoms: _326  and  _327
REMARK  134  A    between atoms: _326  and  _329
REMARK  135  A    between atoms: _329  and  _330
REMARK  136  A    between atoms: _333  and  _335
REMARK  137  A    between atoms: _335  and  _336
REMARK  138  A    between atoms: _338  and  _340
REMARK  139  A    between atoms: _340  and  _341
REMARK  140  A    between atoms: _344  and  _346
REMARK  141  A    between atoms: _346  and  _347
REMARK  142  A    between atoms: _346  and  _349
REMARK  143  A    between atoms: _349  and  _350
REMARK  144  A    between atoms: _353  and  _355
REMARK  145  A    between atoms: _355  and  _356
REMARK  146  A    between atoms: _355  and  _358
REMARK  147  A    between atoms: _358  and  _359
REMARK  148  A    between atoms: _362  and  _364
REMARK  149  A    between atoms: _364  and  _365
REMARK  150  A    between atoms: _364  and  _367
REMARK  151  A    between atoms: _367  and  _368
REMARK  152  A    between atoms: _371  and  _373
REMARK  153  A    between atoms: _373  and  _374
REMARK  154  A    between atoms: _373  and  _376
REMARK  155  A    between atoms: _379  and  _381
REMARK  156  A    between atoms: _381  and  _382
REMARK  157  A    between atoms: _381  and  _384
REMARK  158  A    between atoms: _384  and  _385
REMARK  159  A    between atoms: _388  and  _390
REMARK  160  A    between atoms: _390  and  _391
REMARK  161  A    between atoms: _390  and  _393
REMARK  162  A    between atoms: _393  and  _394
REMARK  163  A    between atoms: _394  and  _395
REMARK  164  A    between atoms: _395  and  _396
REMARK  165  A    between atoms: _396  and  _397
REMARK  166  A    between atoms: _401  and  _403
REMARK  167  A    between atoms: _403  and  _404
REMARK  168  A    between atoms: _403  and  _406
REMARK  169  A    between atoms: _406  and  _407
REMARK  170  A    between atoms: _407  and  _408
REMARK  171  A    between atoms: _410  and  _412
REMARK  172  A    between atoms: _412  and  _413
REMARK  173  A    between atoms: _412  and  _415
REMARK  174  A    between atoms: _415  and  _416
REMARK  175  A    between atoms: _419  and  _421
REMARK  176  A    between atoms: _421  and  _422
REMARK  177  A    between atoms: _424  and  _426
REMARK  178  A    between atoms: _426  and  _427
REMARK  179  A    between atoms: _429  and  _431
REMARK  180  A    between atoms: _431  and  _432
REMARK  181  A    between atoms: _431  and  _434
REMARK  182  A    between atoms: _434  and  _435
REMARK  183  A    between atoms: _438  and  _440
REMARK  184  A    between atoms: _440  and  _441
REMARK  185  A    between atoms: _443  and  _445
REMARK  186  A    between atoms: _445  and  _446
REMARK  187  A    between atoms: _448  and  _450
REMARK  188  A    between atoms: _450  and  _451
REMARK  189  A    between atoms: _450  and  _453
REMARK  190  A    between atoms: _453  and  _454
REMARK  191  A    between atoms: _457  and  _459
REMARK  192  A    between atoms: _459  and  _460
REMARK  193  A    between atoms: _459  and  _462
REMARK  194  A    between atoms: _465  and  _467
REMARK  195  A    between atoms: _467  and  _468
REMARK  196  A    between atoms: _467  and  _470
REMARK  197  A    between atoms: _470  and  _471
REMARK  198  A    between atoms: _474  and  _476
REMARK  199  A    between atoms: _476  and  _477
REMARK  200  A    between atoms: _476  and  _479
REMARK  201  A    between atoms: _479  and  _480
REMARK  202  A    between atoms: _484  and  _485
REMARK  203  A    between atoms: _490  and  _492
REMARK  204  A    between atoms: _492  and  _493
REMARK  205  A    between atoms: _492  and  _495
REMARK  206  A    between atoms: _498  and  _500
REMARK  207  A    between atoms: _500  and  _501
REMARK  208  A    between atoms: _500  and  _503
REMARK  209  A    between atoms: _503  and  _504
REMARK  210  A    between atoms: _509  and  _511
REMARK  211  A    between atoms: _511  and  _512
REMARK  212  A    between atoms: _511  and  _514
REMARK  213  A    between atoms: _514  and  _515
REMARK  214  A    between atoms: _518  and  _520
REMARK  215  A    between atoms: _520  and  _521
REMARK  216  A    between atoms: _520  and  _523
REMARK  217  A    between atoms: _523  and  _524
REMARK  218  A    between atoms: _527  and  _529
REMARK  219  A    between atoms: _529  and  _530
REMARK  220  A    between atoms: _532  and  _534
REMARK  221  A    between atoms: _534  and  _535
REMARK  222  A    between atoms: _534  and  _537
REMARK  223  A    between atoms: _537  and  _538
REMARK  224  A    between atoms: _538  and  _539
REMARK  225  A    between atoms: _539  and  _540
REMARK  226  A    between atoms: _549  and  _551
REMARK  227  A    between atoms: _551  and  _552
REMARK  228  A    between atoms: _551  and  _554
REMARK  229  A    between atoms: _554  and  _555
REMARK                            x       y       z     vdW  Elec       q    Type
REMARK                         _______ _______ _______ _____ _____    ______ ____
ROOT
ATOM      1  C   GLY A   5      20.258  31.438  20.367  0.00  0.00    +0.243 C 
ATOM      2  N   ALA A   6      18.979  31.102  20.346  0.00  0.00    -0.297 N 
ATOM      3  H   ALA A   6      18.715  30.140  20.639  0.00  0.00    +0.150 HD
ATOM      4  O   GLY A   5      20.655  32.563  20.094  0.00  0.00    -0.273 OA
ENDROOT
BRANCH   2   5
ATOM      5  CA  ALA A   6      17.927  32.011  19.934  0.00  0.00    +0.149 C 
ATOM      6  CB  ALA A   6      16.795  31.232  19.253  0.00  0.00    +0.031 C 
BRANCH   5   7
ATOM      7  C   ALA A   6      17.382  32.762  21.108  0.00  0.00    +0.241 C 
ATOM      8  O   ALA A   6      16.907  32.154  22.097  0.00  0.00    -0.273 OA
ATOM      9  N   ASP A   7      17.374  34.086  21.055  0.00  0.00    -0.297 N 
ATOM     10  H   ASP A   7      17.789  34.570  20.233  0.00  0.00    +0.150 HD
BRANCH   9  11
ATOM     11  CA  ASP A   7      16.790  34.872  22.135  0.00  0.00    +0.160 C 
BRANCH  11  12
ATOM     12  C   ASP A   7      15.284  34.744  22.168  0.00  0.00    +0.241 C 
ATOM     13  O   ASP A   7      14.658  34.800  23.243  0.00  0.00    -0.273 OA
ATOM     14  N   ASP A   8      14.683  34.601  20.994  0.00  0.00    -0.297 N 
ATOM     15  H   ASP A   8      15.306  34.422  20.181  0.00  0.00    +0.150 HD
BRANCH  14  16
ATOM     16  CA  ASP A   8      13.283  34.663  20.710  0.00  0.00    +0.160 C 
BRANCH  16  17
ATOM     17  C   ASP A   8      12.814  33.367  20.072  0.00  0.00    +0.241 C 
ATOM     18  N   THR A   9      11.500  33.188  20.054  0.00  0.00    -0.295 N 
ATOM     19  H   THR A   9      10.908  33.928  20.483  0.00  0.00    +0.150 HD
ATOM     20  O   ASP A   8      13.607  32.571  19.596  0.00  0.00    -0.273 OA
BRANCH  18  21
ATOM     21  CA  THR A   9      10.819  32.024  19.474  0.00  0.00    +0.176 C 
BRANCH  21  22
ATOM     22  C   THR A   9      10.199  32.466  18.159  0.00  0.00    +0.243 C 
ATOM     23  O   THR A   9       9.465  33.466  18.108  0.00  0.00    -0.273 OA
ATOM     24  N   VAL A  10      10.504  31.709  17.110  0.00  0.00    -0.298 N 
ATOM     25  H   VAL A  10      11.046  30.836  17.269  0.00  0.00    +0.150 HD
BRANCH  24  26
ATOM     26  CA  VAL A  10      10.111  32.048  15.738  0.00  0.00    +0.137 C 
BRANCH  26  27
ATOM     27  CB  VAL A  10      11.316  32.490  14.883  0.00  0.00    +0.026 C 
ATOM     28  CG2 VAL A  10      12.170  33.504  15.608  0.00  0.00    +0.002 C 
ATOM     29  CG1 VAL A  10      10.838  33.086  13.573  0.00  0.00    +0.002 C 
ENDBRANCH  26  27
BRANCH  26  30
ATOM     30  C   VAL A  10       9.420  30.862  15.117  0.00  0.00    +0.227 C 
ATOM     31  O   VAL A  10      10.026  29.770  15.003  0.00  0.00    -0.286 OA
ENDBRANCH  26  30
ENDBRANCH  24  26
ENDBRANCH  21  22
BRANCH  21  32
ATOM     32  CB  THR A   9       9.782  31.518  20.463  0.00  0.00    +0.137 C 
ATOM     33  CG2 THR A   9       8.846  30.469  19.869  0.00  0.00    +0.034 C 
BRANCH  32  34
ATOM     34  OG1 THR A   9      10.469  30.963  21.579  0.00  0.00    -0.382 OA
ATOM     35  HG1 THR A   9      11.030  31.661  22.000  0.00  0.00    +0.210 HD
ENDBRANCH  32  34
ENDBRANCH  21  32
ENDBRANCH  18  21
ENDBRANCH  16  17
BRANCH  16  36
ATOM     36  CB  ASP A   8      12.962  35.817  19.747  0.00  0.00    +0.143 C 
BRANCH  36  37
ATOM     37  CG  ASP A   8      13.460  37.144  20.232  0.00  0.00    +0.367 C 
ATOM     38  OD2 ASP A   8      13.385  37.459  21.439  0.00  0.00    -0.246 OA
ATOM     39  OD1 ASP A   8      13.963  37.830  19.344  0.00  0.00    -0.246 OA
ENDBRANCH  36  37
ENDBRANCH  16  36
ENDBRANCH  14  16
ENDBRANCH  11  12
BRANCH  11  40
ATOM     40  CB  ASP A   7      17.141  36.356  21.966  0.00  0.00    +0.143 C 
BRANCH  40  41
ATOM     41  CG  ASP A   7      18.599  36.704  22.091  0.00  0.00    +0.367 C 
ATOM     42  OD2 ASP A   7      19.403  35.934  22.630  0.00  0.00    -0.246 OA
ATOM     43  OD1 ASP A   7      18.916  37.834  21.667  0.00  0.00    -0.246 OA
ENDBRANCH  40  41
ENDBRANCH  11  40
ENDBRANCH   9  11
ENDBRANCH   5   7
ENDBRANCH   2   5
BRANCH   1  44
ATOM     44  CA  GLY A   5      21.264  30.384  20.737  0.00  0.00    +0.176 C 
BRANCH  44  47
ATOM     45  C   THR A   4      20.373  29.142  22.613  0.00  0.00    +0.243 C 
ATOM     46  O   THR A   4      20.574  30.073  23.390  0.00  0.00    -0.273 OA
ATOM     47  N   GLY A   5      20.694  29.173  21.327  0.00  0.00    -0.295 N 
ATOM     48  H   GLY A   5      20.540  28.332  20.735  0.00  0.00    +0.150 HD
BRANCH  45  49
ATOM     49  CA  THR A   4      19.744  27.875  23.160  0.00  0.00    +0.176 C 
BRANCH  49  51
ATOM     50  C   ASP A   3      18.084  27.439  21.431  0.00  0.00    +0.241 C 
ATOM     51  N   THR A   4      19.154  27.029  22.123  0.00  0.00    -0.295 N 
ATOM     52  H   THR A   4      19.571  26.098  21.921  0.00  0.00    +0.150 HD
ATOM     53  O   ASP A   3      17.561  28.542  21.616  0.00  0.00    -0.273 OA
BRANCH  50  54
ATOM     54  CA  ASP A   3      17.583  26.496  20.356  0.00  0.00    +0.160 C 
BRANCH  54  56
ATOM     55  C   ILE A   2      16.515  24.342  20.730  0.00  0.00    +0.241 C 
ATOM     56  N   ASP A   3      16.468  25.682  20.826  0.00  0.00    -0.297 N 
ATOM     57  H   ASP A   3      15.631  26.141  21.238  0.00  0.00    +0.150 HD
ATOM     58  O   ILE A   2      17.529  23.708  20.457  0.00  0.00    -0.273 OA
BRANCH  55  59
ATOM     59  CA  ILE A   2      15.207  23.601  20.932  0.00  0.00    +0.148 C 
BRANCH  59  61
ATOM     60  C   LEU A   1      14.205  23.752  18.698  0.00  0.00    +0.238 C 
ATOM     61  N   ILE A   2      14.802  23.037  19.661  0.00  0.00    -0.297 N 
ATOM     62  H   ILE A   2      14.983  22.028  19.487  0.00  0.00    +0.150 HD
ATOM     63  O   LEU A   1      13.864  24.915  18.860  0.00  0.00    -0.274 OA
BRANCH  60  64
ATOM     64  CA  LEU A   1      14.011  23.049  17.359  0.00  0.00    +0.145 C 
BRANCH  64  65
ATOM     65  N   LEU A   1      12.629  23.170  16.912  0.00  0.00    -0.238 NA
ATOM     66  H   LEU A   1      12.372  24.012  16.359  0.00  0.00    +0.142 HD
ENDBRANCH  64  65
BRANCH  64  67
ATOM     67  CB  LEU A   1      14.841  23.732  16.254  0.00  0.00    +0.026 C 
BRANCH  67  68
ATOM     68  CG  LEU A   1      16.336  23.757  16.343  0.00  0.00    +0.002 C 
ATOM     69  CD2 LEU A   1      16.851  22.329  16.345  0.00  0.00    +0.000 C 
ATOM     70  CD1 LEU A   1      16.908  24.619  15.257  0.00  0.00    +0.000 C 
ENDBRANCH  67  68
ENDBRANCH  64  67
ENDBRANCH  60  64
ENDBRANCH  59  61
BRANCH  59  71
ATOM     71  CB  ILE A   2      15.336  22.557  22.050  0.00  0.00    +0.027 C 
ATOM     72  CG2 ILE A   2      15.665  23.236  23.368  0.00  0.00    +0.002 C 
BRANCH  71  73
ATOM     73  CG1 ILE A   2      14.095  21.666  22.178  0.00  0.00    +0.002 C 
ATOM     74  CD1 ILE A   2      14.027  20.936  23.500  0.00  0.00    +0.000 C 
ENDBRANCH  71  73
ENDBRANCH  59  71
ENDBRANCH  55  59
ENDBRANCH  54  56
BRANCH  54  75
ATOM     75  CB  ASP A   3      17.198  27.281  19.127  0.00  0.00    +0.143 C 
BRANCH  75  76
ATOM     76  CG  ASP A   3      18.431  27.935  18.519  0.00  0.00    +0.367 C 
ATOM     77  OD2 ASP A   3      19.544  27.830  19.112  0.00  0.00    -0.246 OA
ATOM     78  OD1 ASP A   3      18.231  28.422  17.412  0.00  0.00    -0.246 OA
ENDBRANCH  75  76
ENDBRANCH  54  75
ENDBRANCH  50  54
ENDBRANCH  49  51
BRANCH  49  79
ATOM     79  CB  THR A   4      20.759  27.100  23.972  0.00  0.00    +0.137 C 
ATOM     80  CG2 THR A   4      20.150  25.853  24.617  0.00  0.00    +0.034 C 
BRANCH  79  81
ATOM     81  OG1 THR A   4      21.840  26.668  23.126  0.00  0.00    -0.382 OA
ATOM     82  HG1 THR A   4      22.279  27.459  22.724  0.00  0.00    +0.210 HD
ENDBRANCH  79  81
ENDBRANCH  49  79
ENDBRANCH  45  49
ENDBRANCH  44  47
ENDBRANCH   1  44
TORSDOF 35
REMARK  Name = ../refined-set-2016/2avo/2avo_pocket.pdb
REMARK  229 active torsions:
REMARK  status: ('A' for Active; 'I' for Inactive)
REMARK    1  A    between atoms: _1  and  _3
REMARK    2  A    between atoms: _3  and  _4
REMARK    3  A    between atoms: _3  and  _6
REMARK    4  A    between atoms: _6  and  _7
REMARK    5  A    between atoms: _7  and  _8
REMARK    6  A    between atoms: _8  and  _9
REMARK    7  A    between atoms: _18  and  _20
REMARK    8  A    between atoms: _20  and  _21
REMARK    9  A    between atoms: _20  and  _23
REMARK   10  A    between atoms: _23  and  _24
REMARK   11  A    between atoms: _27  and  _29
REMARK   12  A    between atoms: _29  and  _30
REMARK   13  A    between atoms: _29  and  _32
REMARK   14  A    between atoms: _32  and  _33
REMARK   15  A    between atoms: _36  and  _38
REMARK   16  A    between atoms: _38  and  _39
REMARK   17  A    between atoms: _38  and  _41
REMARK   18  A    between atoms: _41  and  _42
REMARK   19  A    between atoms: _45  and  _47
REMARK   20  A    between atoms: _47  and  _48
REMARK   21  A    between atoms: _47  and  _50
REMARK   22  A    between atoms: _50  and  _51
REMARK   23  A    between atoms: _54  and  _56
REMARK   24  A    between atoms: _56  and  _57
REMARK   25  A    between atoms: _56  and  _59
REMARK   26  A    between atoms: _59  and  _60
REMARK   27  A    between atoms: _63  and  _65
REMARK   28  A    between atoms: _65  and  _66
REMARK   29  A    between atoms: _68  and  _70
REMARK   30  A    between atoms: _70  and  _71
REMARK   31  A    between atoms: _74  and  _76
REMARK   32  A    between atoms: _76  and  _77
REMARK   33  A    between atoms: _76  and  _79
REMARK   34  A    between atoms: _79  and  _80
REMARK   35  A    between atoms: _83  and  _85
REMARK   36  A    between atoms: _85  and  _86
REMARK   37  A    between atoms: _85  and  _88
REMARK   38  A    between atoms: _88  and  _89
REMARK   39  A    between atoms: _92  and  _94
REMARK   40  A    between atoms: _94  and  _95
REMARK   41  A    between atoms: _94  and  _97
REMARK   42  A    between atoms: _97  and  _98
REMARK   43  A    between atoms: _101  and  _103
REMARK   44  A    between atoms: _103  and  _104
REMARK   45  A    between atoms: _103  and  _106
REMARK   46  A    between atoms: _109  and  _111
REMARK   47  A    between atoms: _111  and  _112
REMARK   48  A    between atoms: _111  and  _114
REMARK   49  A    between atoms: _114  and  _115
REMARK   50  A    between atoms: _115  and  _116
REMARK   51  A    between atoms: _118  and  _120
REMARK   52  A    between atoms: _120  and  _121
REMARK   53  A    between atoms: _120  and  _123
REMARK   54  A    between atoms: _123  and  _124
REMARK   55  A    between atoms: _127  and  _129
REMARK   56  A    between atoms: _129  and  _130
REMARK   57  A    between atoms: _132  and  _134
REMARK   58  A    between atoms: _134  and  _135
REMARK   59  A    between atoms: _137  and  _139
REMARK   60  A    between atoms: _139  and  _140
REMARK   61  A    between atoms: _139  and  _142
REMARK   62  A    between atoms: _142  and  _143
REMARK   63  A    between atoms: _146  and  _148
REMARK   64  A    between atoms: _148  and  _149
REMARK   65  A    between atoms: _151  and  _153
REMARK   66  A    between atoms: _153  and  _154
REMARK   67  A    between atoms: _156  and  _158
REMARK   68  A    between atoms: _158  and  _159
REMARK   69  A    between atoms: _158  and  _161
REMARK   70  A    between atoms: _161  and  _162
REMARK   71  A    between atoms: _168  and  _170
REMARK   72  A    between atoms: _170  and  _171
REMARK   73  A    between atoms: _170  and  _173
REMARK   74  A    between atoms: _173  and  _174
REMARK   75  A    between atoms: _177  and  _179
REMARK   76  A    between atoms: _179  and  _180
REMARK   77  A    between atoms: _179  and  _182
REMARK   78  A    between atoms: _185  and  _187
REMARK   79  A    between atoms: _187  and  _188
REMARK   80  A    between atoms: _187  and  _190
REMARK   81  A    between atoms: _190  and  _191
REMARK   82  A    between atoms: _194  and  _196
REMARK   83  A    between atoms: _196  and  _197
REMARK   84  A    between atoms: _196  and  _199
REMARK   85  A    between atoms: _199  and  _200
REMARK   86  A    between atoms: _204  and  _205
REMARK   87  A    between atoms: _210  and  _212
REMARK   88  A    between atoms: _212  and  _213
REMARK   89  A    between atoms: _212  and  _215
REMARK   90  A    between atoms: _218  and  _220
REMARK   91  A    between atoms: _220  and  _221
REMARK   92  A    between atoms: _220  and  _223
REMARK   93  A    between atoms: _223  and  _224
REMARK   94  A    between atoms: _229  and  _231
REMARK   95  A    between atoms: _231  and  _232
REMARK   96  A    between atoms: _231  and  _234
REMARK   97  A    between atoms: _234  and  _235
REMARK   98  A    between atoms: _238  and  _240
REMARK   99  A    between atoms: _240  and  _241
REMARK  100  A    between atoms: _240  and  _243
REMARK  101  A    between atoms: _243  and  _244
REMARK  102  A    between atoms: _247  and  _249
REMARK  103  A    between atoms: _249  and  _250
REMARK  104  A    between atoms: _252  and  _254
REMARK  105  A    between atoms: _254  and  _255
REMARK  106  A    between atoms: _254  and  _257
REMARK  107  A    between atoms: _257  and  _258
REMARK  108  A    between atoms: _258  and  _259
REMARK  109  A    between atoms: _259  and  _260
REMARK  110  A    between atoms: _269  and  _271
REMARK  111  A    between atoms: _271  and  _272
REMARK  112  A    between atoms: _271  and  _274
REMARK  113  A    between atoms: _274  and  _275
REMARK  114  A    between atoms: _280  and  _282
REMARK  115  A    between atoms: _282  and  _283
REMARK  116  A    between atoms: _282  and  _285
REMARK  117  A    between atoms: _285  and  _286
REMARK  118  A    between atoms: _286  and  _287
REMARK  119  A    between atoms: _287  and  _288
REMARK  120  A    between atoms: _297  and  _299
REMARK  121  A    between atoms: _299  and  _300
REMARK  122  A    between atoms: _299  and  _302
REMARK  123  A    between atoms: _302  and  _303
REMARK  124  A    between atoms: _306  and  _308
REMARK  125  A    between atoms: _308  and  _309
REMARK  126  A    between atoms: _308  and  _311
REMARK  127  A    between atoms: _311  and  _312
REMARK  128  A    between atoms: _315  and  _317
REMARK  129  A    between atoms: _317  and  _318
REMARK  130  A    between atoms: _317  and  _320
REMARK  131  A    between atoms: _320  and  _321
REMARK  132  A    between atoms: _324  and  _326
REMARK  133  A    between atoms: _326  and  _327
REMARK  134  A    between atoms: _326  and  _329
REMARK  135  A    between atoms: _329  and  _330
REMARK  136  A    between atoms: _333  and  _335
REMARK  137  A    between atoms: _335  and  _336
REMARK  138  A    between atoms: _338  and  _340
REMARK  139  A    between atoms: _340  and  _341
REMARK  140  A    between atoms: _344  and  _346
REMARK  141  A    between atoms: _346  and  _347
REMARK  142  A    between atoms: _346  and  _349
REMARK  143  A    between atoms: _349  and  _350
REMARK  144  A    between atoms: _353  and  _355
REMARK  145  A    between atoms: _355  and  _356
REMARK  146  A    between atoms: _355  and  _358
REMARK  147  A    between atoms: _358  and  _359
REMARK  148  A    between atoms: _362  and  _364
REMARK  149  A    between atoms: _364  and  _365
REMARK  150  A    between atoms: _364  and  _367
REMARK  151  A    between atoms: _367  and  _368
REMARK  152  A    between atoms: _371  and  _373
REMARK  153  A    between atoms: _373  and  _374
REMARK  154  A    between atoms: _373  and  _376
REMARK  155  A    between atoms: _379  and  _381
REMARK  156  A    between atoms: _381  and  _382
REMARK  157  A    between atoms: _381  and  _384
REMARK  158  A    between atoms: _384  and  _385
REMARK  159  A    between atoms: _388  and  _390
REMARK  160  A    between atoms: _390  and  _391
REMARK  161  A    between atoms: _390  and  _393
REMARK  162  A    between atoms: _393  and  _394
REMARK  163  A    between atoms: _394  and  _395
REMARK  164  A    between atoms: _395  and  _396
REMARK  165  A    between atoms: _396  and  _397
REMARK  166  A    between atoms: _401  and  _403
REMARK  167  A    between atoms: _403  and  _404
REMARK  168  A    between atoms: _403  and  _406
REMARK  169  A    between atoms: _406  and  _407
REMARK  170  A    between atoms: _407  and  _408
REMARK  171  A    between atoms: _410  and  _412
REMARK  172  A    between atoms: _412  and  _413
REMARK  173  A    between atoms: _412  and  _415
REMARK  174  A    between atoms: _415  and  _416
REMARK  175  A    between atoms: _419  and  _421
REMARK  176  A    between atoms: _421  and  _422
REMARK  177  A    between atoms: _424  and  _426
REMARK  178  A    between atoms: _426  and  _427
REMARK  179  A    between atoms: _429  and  _431
REMARK  180  A    between atoms: _431  and  _432
REMARK  181  A    between atoms: _431  and  _434
REMARK  182  A    between atoms: _434  and  _435
REMARK  183  A    between atoms: _438  and  _440
REMARK  184  A    between atoms: _440  and  _441
REMARK  185  A    between atoms: _443  and  _445
REMARK  186  A    between atoms: _445  and  _446
REMARK  187  A    between atoms: _448  and  _450
REMARK  188  A    between atoms: _450  and  _451
REMARK  189  A    between atoms: _450  and  _453
REMARK  190  A    between atoms: _453  and  _454
REMARK  191  A    between atoms: _457  and  _459
REMARK  192  A    between atoms: _459  and  _460
REMARK  193  A    between atoms: _459  and  _462
REMARK  194  A    between atoms: _465  and  _467
REMARK  195  A    between atoms: _467  and  _468
REMARK  196  A    between atoms: _467  and  _470
REMARK  197  A    between atoms: _470  and  _471
REMARK  198  A    between atoms: _474  and  _476
REMARK  199  A    between atoms: _476  and  _477
REMARK  200  A    between atoms: _476  and  _479
REMARK  201  A    between atoms: _479  and  _480
REMARK  202  A    between atoms: _484  and  _485
REMARK  203  A    between atoms: _490  and  _492
REMARK  204  A    between atoms: _492  and  _493
REMARK  205  A    between atoms: _492  and  _495
REMARK  206  A    between atoms: _498  and  _500
REMARK  207  A    between atoms: _500  and  _501
REMARK  208  A    between atoms: _500  and  _503
REMARK  209  A    between atoms: _503  and  _504
REMARK  210  A    between atoms: _509  and  _511
REMARK  211  A    between atoms: _511  and  _512
REMARK  212  A    between atoms: _511  and  _514
REMARK  213  A    between atoms: _514  and  _515
REMARK  214  A    between atoms: _518  and  _520
REMARK  215  A    between atoms: _520  and  _521
REMARK  216  A    between atoms: _520  and  _523
REMARK  217  A    between atoms: _523  and  _524
REMARK  218  A    between atoms: _527  and  _529
REMARK  219  A    between atoms: _529  and  _530
REMARK  220  A    between atoms: _532  and  _534
REMARK  221  A    between atoms: _534  and  _535
REMARK  222  A    between atoms: _534  and  _537
REMARK  223  A    between atoms: _537  and  _538
REMARK  224  A    between atoms: _538  and  _539
REMARK  225  A    between atoms: _539  and  _540
REMARK  226  A    between atoms: _549  and  _551
REMARK  227  A    between atoms: _551  and  _552
REMARK  228  A    between atoms: _551  and  _554
REMARK  229  A    between atoms: _554  and  _555
REMARK                            x       y       z     vdW  Elec       q    Type
REMARK                         _______ _______ _______ _____ _____    ______ ____
ROOT
ATOM      1  CA  ILE A   5      23.416  34.811  11.037  0.00  0.00    +0.149 C 
ENDROOT
BRANCH   1   4
ATOM      2  C   GLY A   4      21.392  35.899  11.749  0.00  0.00    +0.243 C 
ATOM      3  O   GLY A   4      21.922  37.000  11.576  0.00  0.00    -0.273 OA
ATOM      4  N   ILE A   5      22.043  34.765  11.491  0.00  0.00    -0.297 N 
ATOM      5  H   ILE A   5      21.565  33.850  11.616  0.00  0.00    +0.150 HD
BRANCH   2   6
ATOM      6  CA  GLY A   4      19.964  35.766  12.201  0.00  0.00    +0.176 C 
BRANCH   6   9
ATOM      7  C   GLY A   3      18.972  37.735  13.244  0.00  0.00    +0.243 C 
ATOM      8  O   GLY A   3      19.061  37.270  14.383  0.00  0.00    -0.273 OA
ATOM      9  N   GLY A   4      19.296  37.055  12.154  0.00  0.00    -0.295 N 
ATOM     10  H   GLY A   4      19.062  37.461  11.226  0.00  0.00    +0.150 HD
BRANCH   7  11
ATOM     11  CA  GLY A   3      18.457  39.116  12.980  0.00  0.00    +0.176 C 
BRANCH  11  13
ATOM     12  C   ILE A   2      16.051  39.490  12.995  0.00  0.00    +0.241 C 
ATOM     13  N   GLY A   3      17.203  39.413  13.650  0.00  0.00    -0.295 N 
ATOM     14  H   GLY A   3      17.208  39.571  14.678  0.00  0.00    +0.150 HD
ATOM     15  O   ILE A   2      15.916  39.212  11.800  0.00  0.00    -0.273 OA
BRANCH  12  16
ATOM     16  CA  ILE A   2      14.879  39.964  13.831  0.00  0.00    +0.148 C 
BRANCH  16  19
ATOM     17  C   MET A   1      13.530  41.953  13.394  0.00  0.00    +0.238 C 
ATOM     18  O   MET A   1      13.890  42.488  14.435  0.00  0.00    -0.274 OA
ATOM     19  N   ILE A   2      13.973  40.742  12.991  0.00  0.00    -0.297 N 
ATOM     20  H   ILE A   2      13.666  40.360  12.074  0.00  0.00    +0.150 HD
BRANCH  17  21
ATOM     21  CA  MET A   1      12.574  42.655  12.439  0.00  0.00    +0.146 C 
BRANCH  21  22
ATOM     22  N   MET A   1      11.496  43.210  13.233  0.00  0.00    -0.238 NA
ATOM     23  H   MET A   1      11.741  43.896  13.976  0.00  0.00    +0.142 HD
ENDBRANCH  21  22
BRANCH  21  24
ATOM     24  CB  MET A   1      13.435  43.745  11.804  0.00  0.00    +0.038 C 
BRANCH  24  25
ATOM     25  CG  MET A   1      12.789  44.526  10.691  0.00  0.00    +0.060 C 
BRANCH  25  26
ATOM     26  SD  MET A   1      12.976  43.664   9.124  0.00  0.00    -0.139 S 
ATOM     27  CE  MET A   1      14.649  44.119   8.692  0.00  0.00    +0.069 C 
ENDBRANCH  25  26
ENDBRANCH  24  25
ENDBRANCH  21  24
ENDBRANCH  17  21
ENDBRANCH  16  19
BRANCH  16  28
ATOM     28  CB  ILE A   2      14.124  38.762  14.420  0.00  0.00    +0.027 C 
ATOM     29  CG2 ILE A   2      14.078  37.613  13.428  0.00  0.00    +0.002 C 
BRANCH  28  30
ATOM     30  CG1 ILE A   2      14.689  38.308  15.753  0.00  0.00    +0.002 C 
ATOM     31  CD1 ILE A   2      14.458  39.233  16.913  0.00  0.00    +0.000 C 
ENDBRANCH  28  30
ENDBRANCH  16  28
ENDBRANCH  12  16
ENDBRANCH  11  13
ENDBRANCH   7  11
ENDBRANCH   6   9
ENDBRANCH   2   6
ENDBRANCH   1   4
BRANCH   1  32
ATOM     32  C   ILE A   5      23.553  35.482   9.686  0.00  0.00    +0.241 C 
ATOM     33  O   ILE A   5      24.634  36.008   9.379  0.00  0.00    -0.273 OA
ATOM     34  N   GLY A   6      22.507  35.445   8.846  0.00  0.00    -0.295 N 
ATOM     35  H   GLY A   6      21.615  35.026   9.178  0.00  0.00    +0.150 HD
BRANCH  34  36
ATOM     36  CA  GLY A   6      22.569  35.955   7.522  0.00  0.00    +0.176 C 
BRANCH  36  37
ATOM     37  C   GLY A   6      22.053  37.331   7.293  0.00  0.00    +0.243 C 
ATOM     38  N   GLY A   7      21.417  37.940   8.263  0.00  0.00    -0.295 N 
ATOM     39  H   GLY A   7      21.399  37.473   9.192  0.00  0.00    +0.150 HD
ATOM     40  O   GLY A   6      22.181  37.864   6.188  0.00  0.00    -0.273 OA
BRANCH  38  41
ATOM     41  CA  GLY A   7      20.734  39.218   8.142  0.00  0.00    +0.176 C 
BRANCH  41  42
ATOM     42  C   GLY A   7      19.384  39.173   8.806  0.00  0.00    +0.243 C 
ATOM     43  O   GLY A   7      19.092  38.273   9.596  0.00  0.00    -0.273 OA
ATOM     44  N   PHE A   8      18.567  40.151   8.514  0.00  0.00    -0.297 N 
ATOM     45  H   PHE A   8      18.854  40.838   7.788  0.00  0.00    +0.150 HD
BRANCH  44  46
ATOM     46  CA  PHE A   8      17.269  40.321   9.163  0.00  0.00    +0.153 C 
BRANCH  46  47
ATOM     47  C   PHE A   8      16.127  39.855   8.301  0.00  0.00    +0.241 C 
ATOM     48  N   ILE A   9      15.056  39.426   8.991  0.00  0.00    -0.298 N 
ATOM     49  H   ILE A   9      15.144  39.309  10.021  0.00  0.00    +0.150 HD
ATOM     50  O   PHE A   8      16.152  39.936   7.060  0.00  0.00    -0.273 OA
BRANCH  48  51
ATOM     51  CA  ILE A   9      13.768  39.115   8.359  0.00  0.00    +0.137 C 
BRANCH  51  52
ATOM     52  CB  ILE A   9      13.481  37.615   8.315  0.00  0.00    +0.026 C 
ATOM     53  CG2 ILE A   9      14.573  36.941   7.498  0.00  0.00    +0.002 C 
BRANCH  52  54
ATOM     54  CG1 ILE A   9      13.306  37.000   9.667  0.00  0.00    +0.002 C 
ATOM     55  CD1 ILE A   9      12.722  35.607   9.744  0.00  0.00    +0.000 C 
ENDBRANCH  52  54
ENDBRANCH  51  52
BRANCH  51  56
ATOM     56  C   ILE A   9      12.662  39.825   9.105  0.00  0.00    +0.227 C 
ATOM     57  O   ILE A   9      12.780  40.184  10.298  0.00  0.00    -0.286 OA
ENDBRANCH  51  56
ENDBRANCH  48  51
ENDBRANCH  46  47
BRANCH  46  58
ATOM     58  CB  PHE A   8      17.067  41.801   9.552  0.00  0.00    +0.055 C 
BRANCH  58  59
ATOM     59  CG  PHE A   8      17.864  42.209  10.742  0.00  0.00    -0.020 A 
ATOM     60  CD2 PHE A   8      17.241  42.377  11.938  0.00  0.00    -0.004 A 
ATOM     61  CE2 PHE A   8      17.919  42.752  13.096  0.00  0.00    -0.000 A 
ATOM     62  CZ  PHE A   8      19.284  42.958  13.060  0.00  0.00    -0.000 A 
ATOM     63  CE1 PHE A   8      19.920  42.765  11.857  0.00  0.00    -0.000 A 
ATOM     64  CD1 PHE A   8      19.241  42.412  10.702  0.00  0.00    -0.004 A 
ENDBRANCH  58  59
ENDBRANCH  46  58
ENDBRANCH  44  46
ENDBRANCH  41  42
ENDBRANCH  38  41
ENDBRANCH  36  37
ENDBRANCH  34  36
ENDBRANCH   1  32
BRANCH   1  65
ATOM     65  CB  ILE A   5      23.959  33.378  10.922  0.00  0.00    +0.027 C 
ATOM     66  CG2 ILE A   5      23.486  32.733   9.630  0.00  0.00    +0.002 C 
BRANCH  65  67
ATOM     67  CG1 ILE A   5      25.471  33.369  11.069  0.00  0.00    +0.002 C 
ATOM     68  CD1 ILE A   5      26.028  31.956  11.158  0.00  0.00    +0.000 C 
ENDBRANCH  65  67
ENDBRANCH   1  65
TORSDOF 29
REMARK  Name = ../refined-set-2016/2avo/2avo_pocket.pdb
REMARK  229 active torsions:
REMARK  status: ('A' for Active; 'I' for Inactive)
REMARK    1  A    between atoms: _1  and  _3
REMARK    2  A    between atoms: _3  and  _4
REMARK    3  A    between atoms: _3  and  _6
REMARK    4  A    between atoms: _6  and  _7
REMARK    5  A    between atoms: _7  and  _8
REMARK    6  A    between atoms: _8  and  _9
REMARK    7  A    between atoms: _18  and  _20
REMARK    8  A    between atoms: _20  and  _21
REMARK    9  A    between atoms: _20  and  _23
REMARK   10  A    between atoms: _23  and  _24
REMARK   11  A    between atoms: _27  and  _29
REMARK   12  A    between atoms: _29  and  _30
REMARK   13  A    between atoms: _29  and  _32
REMARK   14  A    between atoms: _32  and  _33
REMARK   15  A    between atoms: _36  and  _38
REMARK   16  A    between atoms: _38  and  _39
REMARK   17  A    between atoms: _38  and  _41
REMARK   18  A    between atoms: _41  and  _42
REMARK   19  A    between atoms: _45  and  _47
REMARK   20  A    between atoms: _47  and  _48
REMARK   21  A    between atoms: _47  and  _50
REMARK   22  A    between atoms: _50  and  _51
REMARK   23  A    between atoms: _54  and  _56
REMARK   24  A    between atoms: _56  and  _57
REMARK   25  A    between atoms: _56  and  _59
REMARK   26  A    between atoms: _59  and  _60
REMARK   27  A    between atoms: _63  and  _65
REMARK   28  A    between atoms: _65  and  _66
REMARK   29  A    between atoms: _68  and  _70
REMARK   30  A    between atoms: _70  and  _71
REMARK   31  A    between atoms: _74  and  _76
REMARK   32  A    between atoms: _76  and  _77
REMARK   33  A    between atoms: _76  and  _79
REMARK   34  A    between atoms: _79  and  _80
REMARK   35  A    between atoms: _83  and  _85
REMARK   36  A    between atoms: _85  and  _86
REMARK   37  A    between atoms: _85  and  _88
REMARK   38  A    between atoms: _88  and  _89
REMARK   39  A    between atoms: _92  and  _94
REMARK   40  A    between atoms: _94  and  _95
REMARK   41  A    between atoms: _94  and  _97
REMARK   42  A    between atoms: _97  and  _98
REMARK   43  A    between atoms: _101  and  _103
REMARK   44  A    between atoms: _103  and  _104
REMARK   45  A    between atoms: _103  and  _106
REMARK   46  A    between atoms: _109  and  _111
REMARK   47  A    between atoms: _111  and  _112
REMARK   48  A    between atoms: _111  and  _114
REMARK   49  A    between atoms: _114  and  _115
REMARK   50  A    between atoms: _115  and  _116
REMARK   51  A    between atoms: _118  and  _120
REMARK   52  A    between atoms: _120  and  _121
REMARK   53  A    between atoms: _120  and  _123
REMARK   54  A    between atoms: _123  and  _124
REMARK   55  A    between atoms: _127  and  _129
REMARK   56  A    between atoms: _129  and  _130
REMARK   57  A    between atoms: _132  and  _134
REMARK   58  A    between atoms: _134  and  _135
REMARK   59  A    between atoms: _137  and  _139
REMARK   60  A    between atoms: _139  and  _140
REMARK   61  A    between atoms: _139  and  _142
REMARK   62  A    between atoms: _142  and  _143
REMARK   63  A    between atoms: _146  and  _148
REMARK   64  A    between atoms: _148  and  _149
REMARK   65  A    between atoms: _151  and  _153
REMARK   66  A    between atoms: _153  and  _154
REMARK   67  A    between atoms: _156  and  _158
REMARK   68  A    between atoms: _158  and  _159
REMARK   69  A    between atoms: _158  and  _161
REMARK   70  A    between atoms: _161  and  _162
REMARK   71  A    between atoms: _168  and  _170
REMARK   72  A    between atoms: _170  and  _171
REMARK   73  A    between atoms: _170  and  _173
REMARK   74  A    between atoms: _173  and  _174
REMARK   75  A    between atoms: _177  and  _179
REMARK   76  A    between atoms: _179  and  _180
REMARK   77  A    between atoms: _179  and  _182
REMARK   78  A    between atoms: _185  and  _187
REMARK   79  A    between atoms: _187  and  _188
REMARK   80  A    between atoms: _187  and  _190
REMARK   81  A    between atoms: _190  and  _191
REMARK   82  A    between atoms: _194  and  _196
REMARK   83  A    between atoms: _196  and  _197
REMARK   84  A    between atoms: _196  and  _199
REMARK   85  A    between atoms: _199  and  _200
REMARK   86  A    between atoms: _204  and  _205
REMARK   87  A    between atoms: _210  and  _212
REMARK   88  A    between atoms: _212  and  _213
REMARK   89  A    between atoms: _212  and  _215
REMARK   90  A    between atoms: _218  and  _220
REMARK   91  A    between atoms: _220  and  _221
REMARK   92  A    between atoms: _220  and  _223
REMARK   93  A    between atoms: _223  and  _224
REMARK   94  A    between atoms: _229  and  _231
REMARK   95  A    between atoms: _231  and  _232
REMARK   96  A    between atoms: _231  and  _234
REMARK   97  A    between atoms: _234  and  _235
REMARK   98  A    between atoms: _238  and  _240
REMARK   99  A    between atoms: _240  and  _241
REMARK  100  A    between atoms: _240  and  _243
REMARK  101  A    between atoms: _243  and  _244
REMARK  102  A    between atoms: _247  and  _249
REMARK  103  A    between atoms: _249  and  _250
REMARK  104  A    between atoms: _252  and  _254
REMARK  105  A    between atoms: _254  and  _255
REMARK  106  A    between atoms: _254  and  _257
REMARK  107  A    between atoms: _257  and  _258
REMARK  108  A    between atoms: _258  and  _259
REMARK  109  A    between atoms: _259  and  _260
REMARK  110  A    between atoms: _269  and  _271
REMARK  111  A    between atoms: _271  and  _272
REMARK  112  A    between atoms: _271  and  _274
REMARK  113  A    between atoms: _274  and  _275
REMARK  114  A    between atoms: _280  and  _282
REMARK  115  A    between atoms: _282  and  _283
REMARK  116  A    between atoms: _282  and  _285
REMARK  117  A    between atoms: _285  and  _286
REMARK  118  A    between atoms: _286  and  _287
REMARK  119  A    between atoms: _287  and  _288
REMARK  120  A    between atoms: _297  and  _299
REMARK  121  A    between atoms: _299  and  _300
REMARK  122  A    between atoms: _299  and  _302
REMARK  123  A    between atoms: _302  and  _303
REMARK  124  A    between atoms: _306  and  _308
REMARK  125  A    between atoms: _308  and  _309
REMARK  126  A    between atoms: _308  and  _311
REMARK  127  A    between atoms: _311  and  _312
REMARK  128  A    between atoms: _315  and  _317
REMARK  129  A    between atoms: _317  and  _318
REMARK  130  A    between atoms: _317  and  _320
REMARK  131  A    between atoms: _320  and  _321
REMARK  132  A    between atoms: _324  and  _326
REMARK  133  A    between atoms: _326  and  _327
REMARK  134  A    between atoms: _326  and  _329
REMARK  135  A    between atoms: _329  and  _330
REMARK  136  A    between atoms: _333  and  _335
REMARK  137  A    between atoms: _335  and  _336
REMARK  138  A    between atoms: _338  and  _340
REMARK  139  A    between atoms: _340  and  _341
REMARK  140  A    between atoms: _344  and  _346
REMARK  141  A    between atoms: _346  and  _347
REMARK  142  A    between atoms: _346  and  _349
REMARK  143  A    between atoms: _349  and  _350
REMARK  144  A    between atoms: _353  and  _355
REMARK  145  A    between atoms: _355  and  _356
REMARK  146  A    between atoms: _355  and  _358
REMARK  147  A    between atoms: _358  and  _359
REMARK  148  A    between atoms: _362  and  _364
REMARK  149  A    between atoms: _364  and  _365
REMARK  150  A    between atoms: _364  and  _367
REMARK  151  A    between atoms: _367  and  _368
REMARK  152  A    between atoms: _371  and  _373
REMARK  153  A    between atoms: _373  and  _374
REMARK  154  A    between atoms: _373  and  _376
REMARK  155  A    between atoms: _379  and  _381
REMARK  156  A    between atoms: _381  and  _382
REMARK  157  A    between atoms: _381  and  _384
REMARK  158  A    between atoms: _384  and  _385
REMARK  159  A    between atoms: _388  and  _390
REMARK  160  A    between atoms: _390  and  _391
REMARK  161  A    between atoms: _390  and  _393
REMARK  162  A    between atoms: _393  and  _394
REMARK  163  A    between atoms: _394  and  _395
REMARK  164  A    between atoms: _395  and  _396
REMARK  165  A    between atoms: _396  and  _397
REMARK  166  A    between atoms: _401  and  _403
REMARK  167  A    between atoms: _403  and  _404
REMARK  168  A    between atoms: _403  and  _406
REMARK  169  A    between atoms: _406  and  _407
REMARK  170  A    between atoms: _407  and  _408
REMARK  171  A    between atoms: _410  and  _412
REMARK  172  A    between atoms: _412  and  _413
REMARK  173  A    between atoms: _412  and  _415
REMARK  174  A    between atoms: _415  and  _416
REMARK  175  A    between atoms: _419  and  _421
REMARK  176  A    between atoms: _421  and  _422
REMARK  177  A    between atoms: _424  and  _426
REMARK  178  A    between atoms: _426  and  _427
REMARK  179  A    between atoms: _429  and  _431
REMARK  180  A    between atoms: _431  and  _432
REMARK  181  A    between atoms: _431  and  _434
REMARK  182  A    between atoms: _434  and  _435
REMARK  183  A    between atoms: _438  and  _440
REMARK  184  A    between atoms: _440  and  _441
REMARK  185  A    between atoms: _443  and  _445
REMARK  186  A    between atoms: _445  and  _446
REMARK  187  A    between atoms: _448  and  _450
REMARK  188  A    between atoms: _450  and  _451
REMARK  189  A    between atoms: _450  and  _453
REMARK  190  A    between atoms: _453  and  _454
REMARK  191  A    between atoms: _457  and  _459
REMARK  192  A    between atoms: _459  and  _460
REMARK  193  A    between atoms: _459  and  _462
REMARK  194  A    between atoms: _465  and  _467
REMARK  195  A    between atoms: _467  and  _468
REMARK  196  A    between atoms: _467  and  _470
REMARK  197  A    between atoms: _470  and  _471
REMARK  198  A    between atoms: _474  and  _476
REMARK  199  A    between atoms: _476  and  _477
REMARK  200  A    between atoms: _476  and  _479
REMARK  201  A    between atoms: _479  and  _480
REMARK  202  A    between atoms: _484  and  _485
REMARK  203  A    between atoms: _490  and  _492
REMARK  204  A    between atoms: _492  and  _493
REMARK  205  A    between atoms: _492  and  _495
REMARK  206  A    between atoms: _498  and  _500
REMARK  207  A    between atoms: _500  and  _501
REMARK  208  A    between atoms: _500  and  _503
REMARK  209  A    between atoms: _503  and  _504
REMARK  210  A    between atoms: _509  and  _511
REMARK  211  A    between atoms: _511  and  _512
REMARK  212  A    between atoms: _511  and  _514
REMARK  213  A    between atoms: _514  and  _515
REMARK  214  A    between atoms: _518  and  _520
REMARK  215  A    between atoms: _520  and  _521
REMARK  216  A    between atoms: _520  and  _523
REMARK  217  A    between atoms: _523  and  _524
REMARK  218  A    between atoms: _527  and  _529
REMARK  219  A    between atoms: _529  and  _530
REMARK  220  A    between atoms: _532  and  _534
REMARK  221  A    between atoms: _534  and  _535
REMARK  222  A    between atoms: _534  and  _537
REMARK  223  A    between atoms: _537  and  _538
REMARK  224  A    between atoms: _538  and  _539
REMARK  225  A    between atoms: _539  and  _540
REMARK  226  A    between atoms: _549  and  _551
REMARK  227  A    between atoms: _551  and  _552
REMARK  228  A    between atoms: _551  and  _554
REMARK  229  A    between atoms: _554  and  _555
REMARK                            x       y       z     vdW  Elec       q    Type
REMARK                         _______ _______ _______ _____ _____    ______ ____
ROOT
ATOM      1  CA  VAL A   1       8.057  38.864  11.433  0.00  0.00    +0.133 C 
ENDROOT
BRANCH   1   2
ATOM      2  CB  VAL A   1       8.788  38.047  12.482  0.00  0.00    +0.023 C 
ATOM      3  CG2 VAL A   1       9.431  38.899  13.546  0.00  0.00    +0.002 C 
ATOM      4  CG1 VAL A   1       9.843  37.176  11.809  0.00  0.00    +0.002 C 
ENDBRANCH   1   2
BRANCH   1   5
ATOM      5  N   VAL A   1       8.928  39.798  10.727  0.00  0.00    -0.239 NA
ATOM      6  H   VAL A   1       9.156  40.706  11.180  0.00  0.00    +0.142 HD
ENDBRANCH   1   5
BRANCH   1   7
ATOM      7  C   VAL A   1       6.918  39.669  12.078  0.00  0.00    +0.224 C 
ATOM      8  O   VAL A   1       6.968  40.903  12.247  0.00  0.00    -0.287 OA
ENDBRANCH   1   7
TORSDOF 3
REMARK  Name = ../refined-set-2016/2avo/2avo_pocket.pdb
REMARK  229 active torsions:
REMARK  status: ('A' for Active; 'I' for Inactive)
REMARK    1  A    between atoms: _1  and  _3
REMARK    2  A    between atoms: _3  and  _4
REMARK    3  A    between atoms: _3  and  _6
REMARK    4  A    between atoms: _6  and  _7
REMARK    5  A    between atoms: _7  and  _8
REMARK    6  A    between atoms: _8  and  _9
REMARK    7  A    between atoms: _18  and  _20
REMARK    8  A    between atoms: _20  and  _21
REMARK    9  A    between atoms: _20  and  _23
REMARK   10  A    between atoms: _23  and  _24
REMARK   11  A    between atoms: _27  and  _29
REMARK   12  A    between atoms: _29  and  _30
REMARK   13  A    between atoms: _29  and  _32
REMARK   14  A    between atoms: _32  and  _33
REMARK   15  A    between atoms: _36  and  _38
REMARK   16  A    between atoms: _38  and  _39
REMARK   17  A    between atoms: _38  and  _41
REMARK   18  A    between atoms: _41  and  _42
REMARK   19  A    between atoms: _45  and  _47
REMARK   20  A    between atoms: _47  and  _48
REMARK   21  A    between atoms: _47  and  _50
REMARK   22  A    between atoms: _50  and  _51
REMARK   23  A    between atoms: _54  and  _56
REMARK   24  A    between atoms: _56  and  _57
REMARK   25  A    between atoms: _56  and  _59
REMARK   26  A    between atoms: _59  and  _60
REMARK   27  A    between atoms: _63  and  _65
REMARK   28  A    between atoms: _65  and  _66
REMARK   29  A    between atoms: _68  and  _70
REMARK   30  A    between atoms: _70  and  _71
REMARK   31  A    between atoms: _74  and  _76
REMARK   32  A    between atoms: _76  and  _77
REMARK   33  A    between atoms: _76  and  _79
REMARK   34  A    between atoms: _79  and  _80
REMARK   35  A    between atoms: _83  and  _85
REMARK   36  A    between atoms: _85  and  _86
REMARK   37  A    between atoms: _85  and  _88
REMARK   38  A    between atoms: _88  and  _89
REMARK   39  A    between atoms: _92  and  _94
REMARK   40  A    between atoms: _94  and  _95
REMARK   41  A    between atoms: _94  and  _97
REMARK   42  A    between atoms: _97  and  _98
REMARK   43  A    between atoms: _101  and  _103
REMARK   44  A    between atoms: _103  and  _104
REMARK   45  A    between atoms: _103  and  _106
REMARK   46  A    between atoms: _109  and  _111
REMARK   47  A    between atoms: _111  and  _112
REMARK   48  A    between atoms: _111  and  _114
REMARK   49  A    between atoms: _114  and  _115
REMARK   50  A    between atoms: _115  and  _116
REMARK   51  A    between atoms: _118  and  _120
REMARK   52  A    between atoms: _120  and  _121
REMARK   53  A    between atoms: _120  and  _123
REMARK   54  A    between atoms: _123  and  _124
REMARK   55  A    between atoms: _127  and  _129
REMARK   56  A    between atoms: _129  and  _130
REMARK   57  A    between atoms: _132  and  _134
REMARK   58  A    between atoms: _134  and  _135
REMARK   59  A    between atoms: _137  and  _139
REMARK   60  A    between atoms: _139  and  _140
REMARK   61  A    between atoms: _139  and  _142
REMARK   62  A    between atoms: _142  and  _143
REMARK   63  A    between atoms: _146  and  _148
REMARK   64  A    between atoms: _148  and  _149
REMARK   65  A    between atoms: _151  and  _153
REMARK   66  A    between atoms: _153  and  _154
REMARK   67  A    between atoms: _156  and  _158
REMARK   68  A    between atoms: _158  and  _159
REMARK   69  A    between atoms: _158  and  _161
REMARK   70  A    between atoms: _161  and  _162
REMARK   71  A    between atoms: _168  and  _170
REMARK   72  A    between atoms: _170  and  _171
REMARK   73  A    between atoms: _170  and  _173
REMARK   74  A    between atoms: _173  and  _174
REMARK   75  A    between atoms: _177  and  _179
REMARK   76  A    between atoms: _179  and  _180
REMARK   77  A    between atoms: _179  and  _182
REMARK   78  A    between atoms: _185  and  _187
REMARK   79  A    between atoms: _187  and  _188
REMARK   80  A    between atoms: _187  and  _190
REMARK   81  A    between atoms: _190  and  _191
REMARK   82  A    between atoms: _194  and  _196
REMARK   83  A    between atoms: _196  and  _197
REMARK   84  A    between atoms: _196  and  _199
REMARK   85  A    between atoms: _199  and  _200
REMARK   86  A    between atoms: _204  and  _205
REMARK   87  A    between atoms: _210  and  _212
REMARK   88  A    between atoms: _212  and  _213
REMARK   89  A    between atoms: _212  and  _215
REMARK   90  A    between atoms: _218  and  _220
REMARK   91  A    between atoms: _220  and  _221
REMARK   92  A    between atoms: _220  and  _223
REMARK   93  A    between atoms: _223  and  _224
REMARK   94  A    between atoms: _229  and  _231
REMARK   95  A    between atoms: _231  and  _232
REMARK   96  A    between atoms: _231  and  _234
REMARK   97  A    between atoms: _234  and  _235
REMARK   98  A    between atoms: _238  and  _240
REMARK   99  A    between atoms: _240  and  _241
REMARK  100  A    between atoms: _240  and  _243
REMARK  101  A    between atoms: _243  and  _244
REMARK  102  A    between atoms: _247  and  _249
REMARK  103  A    between atoms: _249  and  _250
REMARK  104  A    between atoms: _252  and  _254
REMARK  105  A    between atoms: _254  and  _255
REMARK  106  A    between atoms: _254  and  _257
REMARK  107  A    between atoms: _257  and  _258
REMARK  108  A    between atoms: _258  and  _259
REMARK  109  A    between atoms: _259  and  _260
REMARK  110  A    between atoms: _269  and  _271
REMARK  111  A    between atoms: _271  and  _272
REMARK  112  A    between atoms: _271  and  _274
REMARK  113  A    between atoms: _274  and  _275
REMARK  114  A    between atoms: _280  and  _282
REMARK  115  A    between atoms: _282  and  _283
REMARK  116  A    between atoms: _282  and  _285
REMARK  117  A    between atoms: _285  and  _286
REMARK  118  A    between atoms: _286  and  _287
REMARK  119  A    between atoms: _287  and  _288
REMARK  120  A    between atoms: _297  and  _299
REMARK  121  A    between atoms: _299  and  _300
REMARK  122  A    between atoms: _299  and  _302
REMARK  123  A    between atoms: _302  and  _303
REMARK  124  A    between atoms: _306  and  _308
REMARK  125  A    between atoms: _308  and  _309
REMARK  126  A    between atoms: _308  and  _311
REMARK  127  A    between atoms: _311  and  _312
REMARK  128  A    between atoms: _315  and  _317
REMARK  129  A    between atoms: _317  and  _318
REMARK  130  A    between atoms: _317  and  _320
REMARK  131  A    between atoms: _320  and  _321
REMARK  132  A    between atoms: _324  and  _326
REMARK  133  A    between atoms: _326  and  _327
REMARK  134  A    between atoms: _326  and  _329
REMARK  135  A    between atoms: _329  and  _330
REMARK  136  A    between atoms: _333  and  _335
REMARK  137  A    between atoms: _335  and  _336
REMARK  138  A    between atoms: _338  and  _340
REMARK  139  A    between atoms: _340  and  _341
REMARK  140  A    between atoms: _344  and  _346
REMARK  141  A    between atoms: _346  and  _347
REMARK  142  A    between atoms: _346  and  _349
REMARK  143  A    between atoms: _349  and  _350
REMARK  144  A    between atoms: _353  and  _355
REMARK  145  A    between atoms: _355  and  _356
REMARK  146  A    between atoms: _355  and  _358
REMARK  147  A    between atoms: _358  and  _359
REMARK  148  A    between atoms: _362  and  _364
REMARK  149  A    between atoms: _364  and  _365
REMARK  150  A    between atoms: _364  and  _367
REMARK  151  A    between atoms: _367  and  _368
REMARK  152  A    between atoms: _371  and  _373
REMARK  153  A    between atoms: _373  and  _374
REMARK  154  A    between atoms: _373  and  _376
REMARK  155  A    between atoms: _379  and  _381
REMARK  156  A    between atoms: _381  and  _382
REMARK  157  A    between atoms: _381  and  _384
REMARK  158  A    between atoms: _384  and  _385
REMARK  159  A    between atoms: _388  and  _390
REMARK  160  A    between atoms: _390  and  _391
REMARK  161  A    between atoms: _390  and  _393
REMARK  162  A    between atoms: _393  and  _394
REMARK  163  A    between atoms: _394  and  _395
REMARK  164  A    between atoms: _395  and  _396
REMARK  165  A    between atoms: _396  and  _397
REMARK  166  A    between atoms: _401  and  _403
REMARK  167  A    between atoms: _403  and  _404
REMARK  168  A    between atoms: _403  and  _406
REMARK  169  A    between atoms: _406  and  _407
REMARK  170  A    between atoms: _407  and  _408
REMARK  171  A    between atoms: _410  and  _412
REMARK  172  A    between atoms: _412  and  _413
REMARK  173  A    between atoms: _412  and  _415
REMARK  174  A    between atoms: _415  and  _416
REMARK  175  A    between atoms: _419  and  _421
REMARK  176  A    between atoms: _421  and  _422
REMARK  177  A    between atoms: _424  and  _426
REMARK  178  A    between atoms: _426  and  _427
REMARK  179  A    between atoms: _429  and  _431
REMARK  180  A    between atoms: _431  and  _432
REMARK  181  A    between atoms: _431  and  _434
REMARK  182  A    between atoms: _434  and  _435
REMARK  183  A    between atoms: _438  and  _440
REMARK  184  A    between atoms: _440  and  _441
REMARK  185  A    between atoms: _443  and  _445
REMARK  186  A    between atoms: _445  and  _446
REMARK  187  A    between atoms: _448  and  _450
REMARK  188  A    between atoms: _450  and  _451
REMARK  189  A    between atoms: _450  and  _453
REMARK  190  A    between atoms: _453  and  _454
REMARK  191  A    between atoms: _457  and  _459
REMARK  192  A    between atoms: _459  and  _460
REMARK  193  A    between atoms: _459  and  _462
REMARK  194  A    between atoms: _465  and  _467
REMARK  195  A    between atoms: _467  and  _468
REMARK  196  A    between atoms: _467  and  _470
REMARK  197  A    between atoms: _470  and  _471
REMARK  198  A    between atoms: _474  and  _476
REMARK  199  A    between atoms: _476  and  _477
REMARK  200  A    between atoms: _476  and  _479
REMARK  201  A    between atoms: _479  and  _480
REMARK  202  A    between atoms: _484  and  _485
REMARK  203  A    between atoms: _490  and  _492
REMARK  204  A    between atoms: _492  and  _493
REMARK  205  A    between atoms: _492  and  _495
REMARK  206  A    between atoms: _498  and  _500
REMARK  207  A    between atoms: _500  and  _501
REMARK  208  A    between atoms: _500  and  _503
REMARK  209  A    between atoms: _503  and  _504
REMARK  210  A    between atoms: _509  and  _511
REMARK  211  A    between atoms: _511  and  _512
REMARK  212  A    between atoms: _511  and  _514
REMARK  213  A    between atoms: _514  and  _515
REMARK  214  A    between atoms: _518  and  _520
REMARK  215  A    between atoms: _520  and  _521
REMARK  216  A    between atoms: _520  and  _523
REMARK  217  A    between atoms: _523  and  _524
REMARK  218  A    between atoms: _527  and  _529
REMARK  219  A    between atoms: _529  and  _530
REMARK  220  A    between atoms: _532  and  _534
REMARK  221  A    between atoms: _534  and  _535
REMARK  222  A    between atoms: _534  and  _537
REMARK  223  A    between atoms: _537  and  _538
REMARK  224  A    between atoms: _538  and  _539
REMARK  225  A    between atoms: _539  and  _540
REMARK  226  A    between atoms: _549  and  _551
REMARK  227  A    between atoms: _551  and  _552
REMARK  228  A    between atoms: _551  and  _554
REMARK  229  A    between atoms: _554  and  _555
REMARK                            x       y       z     vdW  Elec       q    Type
REMARK                         _______ _______ _______ _____ _____    ______ ____
ROOT
ATOM      1  CA  LEU A   1       7.268  35.678  16.319  0.00  0.00    +0.133 C 
ENDROOT
BRANCH   1   2
ATOM      2  N   LEU A   1       7.062  34.969  17.581  0.00  0.00    -0.239 NA
ATOM      3  H   LEU A   1       7.781  34.282  17.885  0.00  0.00    +0.142 HD
ENDBRANCH   1   2
BRANCH   1   4
ATOM      4  C   LEU A   1       6.885  34.777  15.172  0.00  0.00    +0.224 C 
ATOM      5  O   LEU A   1       7.310  33.614  15.182  0.00  0.00    -0.287 OA
ENDBRANCH   1   4
BRANCH   1   6
ATOM      6  CB  LEU A   1       8.705  36.159  16.197  0.00  0.00    +0.025 C 
BRANCH   6   7
ATOM      7  CG  LEU A   1       9.254  36.887  17.450  0.00  0.00    +0.002 C 
ATOM      8  CD2 LEU A   1       8.361  38.073  17.810  0.00  0.00    +0.000 C 
ATOM      9  CD1 LEU A   1      10.693  37.303  17.209  0.00  0.00    +0.000 C 
ENDBRANCH   6   7
ENDBRANCH   1   6
TORSDOF 4
REMARK  Name = ../refined-set-2016/2avo/2avo_pocket.pdb
REMARK  229 active torsions:
REMARK  status: ('A' for Active; 'I' for Inactive)
REMARK    1  A    between atoms: _1  and  _3
REMARK    2  A    between atoms: _3  and  _4
REMARK    3  A    between atoms: _3  and  _6
REMARK    4  A    between atoms: _6  and  _7
REMARK    5  A    between atoms: _7  and  _8
REMARK    6  A    between atoms: _8  and  _9
REMARK    7  A    between atoms: _18  and  _20
REMARK    8  A    between atoms: _20  and  _21
REMARK    9  A    between atoms: _20  and  _23
REMARK   10  A    between atoms: _23  and  _24
REMARK   11  A    between atoms: _27  and  _29
REMARK   12  A    between atoms: _29  and  _30
REMARK   13  A    between atoms: _29  and  _32
REMARK   14  A    between atoms: _32  and  _33
REMARK   15  A    between atoms: _36  and  _38
REMARK   16  A    between atoms: _38  and  _39
REMARK   17  A    between atoms: _38  and  _41
REMARK   18  A    between atoms: _41  and  _42
REMARK   19  A    between atoms: _45  and  _47
REMARK   20  A    between atoms: _47  and  _48
REMARK   21  A    between atoms: _47  and  _50
REMARK   22  A    between atoms: _50  and  _51
REMARK   23  A    between atoms: _54  and  _56
REMARK   24  A    between atoms: _56  and  _57
REMARK   25  A    between atoms: _56  and  _59
REMARK   26  A    between atoms: _59  and  _60
REMARK   27  A    between atoms: _63  and  _65
REMARK   28  A    between atoms: _65  and  _66
REMARK   29  A    between atoms: _68  and  _70
REMARK   30  A    between atoms: _70  and  _71
REMARK   31  A    between atoms: _74  and  _76
REMARK   32  A    between atoms: _76  and  _77
REMARK   33  A    between atoms: _76  and  _79
REMARK   34  A    between atoms: _79  and  _80
REMARK   35  A    between atoms: _83  and  _85
REMARK   36  A    between atoms: _85  and  _86
REMARK   37  A    between atoms: _85  and  _88
REMARK   38  A    between atoms: _88  and  _89
REMARK   39  A    between atoms: _92  and  _94
REMARK   40  A    between atoms: _94  and  _95
REMARK   41  A    between atoms: _94  and  _97
REMARK   42  A    between atoms: _97  and  _98
REMARK   43  A    between atoms: _101  and  _103
REMARK   44  A    between atoms: _103  and  _104
REMARK   45  A    between atoms: _103  and  _106
REMARK   46  A    between atoms: _109  and  _111
REMARK   47  A    between atoms: _111  and  _112
REMARK   48  A    between atoms: _111  and  _114
REMARK   49  A    between atoms: _114  and  _115
REMARK   50  A    between atoms: _115  and  _116
REMARK   51  A    between atoms: _118  and  _120
REMARK   52  A    between atoms: _120  and  _121
REMARK   53  A    between atoms: _120  and  _123
REMARK   54  A    between atoms: _123  and  _124
REMARK   55  A    between atoms: _127  and  _129
REMARK   56  A    between atoms: _129  and  _130
REMARK   57  A    between atoms: _132  and  _134
REMARK   58  A    between atoms: _134  and  _135
REMARK   59  A    between atoms: _137  and  _139
REMARK   60  A    between atoms: _139  and  _140
REMARK   61  A    between atoms: _139  and  _142
REMARK   62  A    between atoms: _142  and  _143
REMARK   63  A    between atoms: _146  and  _148
REMARK   64  A    between atoms: _148  and  _149
REMARK   65  A    between atoms: _151  and  _153
REMARK   66  A    between atoms: _153  and  _154
REMARK   67  A    between atoms: _156  and  _158
REMARK   68  A    between atoms: _158  and  _159
REMARK   69  A    between atoms: _158  and  _161
REMARK   70  A    between atoms: _161  and  _162
REMARK   71  A    between atoms: _168  and  _170
REMARK   72  A    between atoms: _170  and  _171
REMARK   73  A    between atoms: _170  and  _173
REMARK   74  A    between atoms: _173  and  _174
REMARK   75  A    between atoms: _177  and  _179
REMARK   76  A    between atoms: _179  and  _180
REMARK   77  A    between atoms: _179  and  _182
REMARK   78  A    between atoms: _185  and  _187
REMARK   79  A    between atoms: _187  and  _188
REMARK   80  A    between atoms: _187  and  _190
REMARK   81  A    between atoms: _190  and  _191
REMARK   82  A    between atoms: _194  and  _196
REMARK   83  A    between atoms: _196  and  _197
REMARK   84  A    between atoms: _196  and  _199
REMARK   85  A    between atoms: _199  and  _200
REMARK   86  A    between atoms: _204  and  _205
REMARK   87  A    between atoms: _210  and  _212
REMARK   88  A    between atoms: _212  and  _213
REMARK   89  A    between atoms: _212  and  _215
REMARK   90  A    between atoms: _218  and  _220
REMARK   91  A    between atoms: _220  and  _221
REMARK   92  A    between atoms: _220  and  _223
REMARK   93  A    between atoms: _223  and  _224
REMARK   94  A    between atoms: _229  and  _231
REMARK   95  A    between atoms: _231  and  _232
REMARK   96  A    between atoms: _231  and  _234
REMARK   97  A    between atoms: _234  and  _235
REMARK   98  A    between atoms: _238  and  _240
REMARK   99  A    between atoms: _240  and  _241
REMARK  100  A    between atoms: _240  and  _243
REMARK  101  A    between atoms: _243  and  _244
REMARK  102  A    between atoms: _247  and  _249
REMARK  103  A    between atoms: _249  and  _250
REMARK  104  A    between atoms: _252  and  _254
REMARK  105  A    between atoms: _254  and  _255
REMARK  106  A    between atoms: _254  and  _257
REMARK  107  A    between atoms: _257  and  _258
REMARK  108  A    between atoms: _258  and  _259
REMARK  109  A    between atoms: _259  and  _260
REMARK  110  A    between atoms: _269  and  _271
REMARK  111  A    between atoms: _271  and  _272
REMARK  112  A    between atoms: _271  and  _274
REMARK  113  A    between atoms: _274  and  _275
REMARK  114  A    between atoms: _280  and  _282
REMARK  115  A    between atoms: _282  and  _283
REMARK  116  A    between atoms: _282  and  _285
REMARK  117  A    between atoms: _285  and  _286
REMARK  118  A    between atoms: _286  and  _287
REMARK  119  A    between atoms: _287  and  _288
REMARK  120  A    between atoms: _297  and  _299
REMARK  121  A    between atoms: _299  and  _300
REMARK  122  A    between atoms: _299  and  _302
REMARK  123  A    between atoms: _302  and  _303
REMARK  124  A    between atoms: _306  and  _308
REMARK  125  A    between atoms: _308  and  _309
REMARK  126  A    between atoms: _308  and  _311
REMARK  127  A    between atoms: _311  and  _312
REMARK  128  A    between atoms: _315  and  _317
REMARK  129  A    between atoms: _317  and  _318
REMARK  130  A    between atoms: _317  and  _320
REMARK  131  A    between atoms: _320  and  _321
REMARK  132  A    between atoms: _324  and  _326
REMARK  133  A    between atoms: _326  and  _327
REMARK  134  A    between atoms: _326  and  _329
REMARK  135  A    between atoms: _329  and  _330
REMARK  136  A    between atoms: _333  and  _335
REMARK  137  A    between atoms: _335  and  _336
REMARK  138  A    between atoms: _338  and  _340
REMARK  139  A    between atoms: _340  and  _341
REMARK  140  A    between atoms: _344  and  _346
REMARK  141  A    between atoms: _346  and  _347
REMARK  142  A    between atoms: _346  and  _349
REMARK  143  A    between atoms: _349  and  _350
REMARK  144  A    between atoms: _353  and  _355
REMARK  145  A    between atoms: _355  and  _356
REMARK  146  A    between atoms: _355  and  _358
REMARK  147  A    between atoms: _358  and  _359
REMARK  148  A    between atoms: _362  and  _364
REMARK  149  A    between atoms: _364  and  _365
REMARK  150  A    between atoms: _364  and  _367
REMARK  151  A    between atoms: _367  and  _368
REMARK  152  A    between atoms: _371  and  _373
REMARK  153  A    between atoms: _373  and  _374
REMARK  154  A    between atoms: _373  and  _376
REMARK  155  A    between atoms: _379  and  _381
REMARK  156  A    between atoms: _381  and  _382
REMARK  157  A    between atoms: _381  and  _384
REMARK  158  A    between atoms: _384  and  _385
REMARK  159  A    between atoms: _388  and  _390
REMARK  160  A    between atoms: _390  and  _391
REMARK  161  A    between atoms: _390  and  _393
REMARK  162  A    between atoms: _393  and  _394
REMARK  163  A    between atoms: _394  and  _395
REMARK  164  A    between atoms: _395  and  _396
REMARK  165  A    between atoms: _396  and  _397
REMARK  166  A    between atoms: _401  and  _403
REMARK  167  A    between atoms: _403  and  _404
REMARK  168  A    between atoms: _403  and  _406
REMARK  169  A    between atoms: _406  and  _407
REMARK  170  A    between atoms: _407  and  _408
REMARK  171  A    between atoms: _410  and  _412
REMARK  172  A    between atoms: _412  and  _413
REMARK  173  A    between atoms: _412  and  _415
REMARK  174  A    between atoms: _415  and  _416
REMARK  175  A    between atoms: _419  and  _421
REMARK  176  A    between atoms: _421  and  _422
REMARK  177  A    between atoms: _424  and  _426
REMARK  178  A    between atoms: _426  and  _427
REMARK  179  A    between atoms: _429  and  _431
REMARK  180  A    between atoms: _431  and  _432
REMARK  181  A    between atoms: _431  and  _434
REMARK  182  A    between atoms: _434  and  _435
REMARK  183  A    between atoms: _438  and  _440
REMARK  184  A    between atoms: _440  and  _441
REMARK  185  A    between atoms: _443  and  _445
REMARK  186  A    between atoms: _445  and  _446
REMARK  187  A    between atoms: _448  and  _450
REMARK  188  A    between atoms: _450  and  _451
REMARK  189  A    between atoms: _450  and  _453
REMARK  190  A    between atoms: _453  and  _454
REMARK  191  A    between atoms: _457  and  _459
REMARK  192  A    between atoms: _459  and  _460
REMARK  193  A    between atoms: _459  and  _462
REMARK  194  A    between atoms: _465  and  _467
REMARK  195  A    between atoms: _467  and  _468
REMARK  196  A    between atoms: _467  and  _470
REMARK  197  A    between atoms: _470  and  _471
REMARK  198  A    between atoms: _474  and  _476
REMARK  199  A    between atoms: _476  and  _477
REMARK  200  A    between atoms: _476  and  _479
REMARK  201  A    between atoms: _479  and  _480
REMARK  202  A    between atoms: _484  and  _485
REMARK  203  A    between atoms: _490  and  _492
REMARK  204  A    between atoms: _492  and  _493
REMARK  205  A    between atoms: _492  and  _495
REMARK  206  A    between atoms: _498  and  _500
REMARK  207  A    between atoms: _500  and  _501
REMARK  208  A    between atoms: _500  and  _503
REMARK  209  A    between atoms: _503  and  _504
REMARK  210  A    between atoms: _509  and  _511
REMARK  211  A    between atoms: _511  and  _512
REMARK  212  A    between atoms: _511  and  _514
REMARK  213  A    between atoms: _514  and  _515
REMARK  214  A    between atoms: _518  and  _520
REMARK  215  A    between atoms: _520  and  _521
REMARK  216  A    between atoms: _520  and  _523
REMARK  217  A    between atoms: _523  and  _524
REMARK  218  A    between atoms: _527  and  _529
REMARK  219  A    between atoms: _529  and  _530
REMARK  220  A    between atoms: _532  and  _534
REMARK  221  A    between atoms: _534  and  _535
REMARK  222  A    between atoms: _534  and  _537
REMARK  223  A    between atoms: _537  and  _538
REMARK  224  A    between atoms: _538  and  _539
REMARK  225  A    between atoms: _539  and  _540
REMARK  226  A    between atoms: _549  and  _551
REMARK  227  A    between atoms: _551  and  _552
REMARK  228  A    between atoms: _551  and  _554
REMARK  229  A    between atoms: _554  and  _555
REMARK                            x       y       z     vdW  Elec       q    Type
REMARK                         _______ _______ _______ _____ _____    ______ ____
ROOT
ATOM      1  C   ILE A   5      12.011  28.084  18.018  0.00  0.00    +0.241 C 
ATOM      2  N   ILE A   6      12.313  27.280  19.039  0.00  0.00    -0.297 N 
ATOM      3  H   ILE A   6      12.815  26.389  18.847  0.00  0.00    +0.150 HD
ATOM      4  O   ILE A   5      11.345  29.106  18.134  0.00  0.00    -0.273 OA
ENDROOT
BRANCH   2   5
ATOM      5  CA  ILE A   6      11.960  27.612  20.422  0.00  0.00    +0.149 C 
BRANCH   5   6
ATOM      6  C   ILE A   6      13.179  28.213  21.070  0.00  0.00    +0.241 C 
ATOM      7  N   GLY A   7      13.082  29.502  21.402  0.00  0.00    -0.295 N 
ATOM      8  H   GLY A   7      12.178  29.994  21.251  0.00  0.00    +0.150 HD
ATOM      9  O   ILE A   6      14.205  27.522  21.242  0.00  0.00    -0.273 OA
BRANCH   7  10
ATOM     10  CA  GLY A   7      14.194  30.239  21.966  0.00  0.00    +0.176 C 
BRANCH  10  11
ATOM     11  C   GLY A   7      14.095  30.401  23.446  0.00  0.00    +0.243 C 
ATOM     12  O   GLY A   7      13.202  29.885  24.130  0.00  0.00    -0.273 OA
ATOM     13  N   ARG A   8      15.044  31.147  24.007  0.00  0.00    -0.297 N 
ATOM     14  H   ARG A   8      15.668  31.712  23.397  0.00  0.00    +0.150 HD
BRANCH  13  15
ATOM     15  CA  ARG A   8      15.237  31.196  25.467  0.00  0.00    +0.149 C 
BRANCH  15  16
ATOM     16  C   ARG A   8      14.058  31.787  26.203  0.00  0.00    +0.241 C 
ATOM     17  O   ARG A   8      13.801  31.436  27.364  0.00  0.00    -0.273 OA
ATOM     18  N   ASN A   9      13.321  32.673  25.554  0.00  0.00    -0.298 N 
ATOM     19  H   ASN A   9      13.562  32.935  24.577  0.00  0.00    +0.150 HD
BRANCH  18  20
ATOM     20  CA  ASN A   9      12.159  33.287  26.218  0.00  0.00    +0.146 C 
BRANCH  20  21
ATOM     21  C   ASN A   9      11.158  32.245  26.674  0.00  0.00    +0.227 C 
ATOM     22  O   ASN A   9      10.467  32.458  27.690  0.00  0.00    -0.286 OA
ENDBRANCH  20  21
BRANCH  20  23
ATOM     23  CB  ASN A   9      11.508  34.325  25.297  0.00  0.00    +0.112 C 
BRANCH  23  24
ATOM     24  CG  ASN A   9      10.783  33.723  24.119  0.00  0.00    +0.222 C 
ATOM     25  ND2 ASN A   9       9.490  34.047  24.028  0.00  0.00    -0.329 N 
ATOM     26 HD21 ASN A   9       9.066  34.694  24.723  0.00  0.00    +0.145 HD
ATOM     27 HD22 ASN A   9       8.908  33.652  23.262  0.00  0.00    +0.145 HD
ATOM     28  OD1 ASN A   9      11.358  32.973  23.348  0.00  0.00    -0.275 OA
ENDBRANCH  23  24
ENDBRANCH  20  23
ENDBRANCH  18  20
ENDBRANCH  15  16
BRANCH  15  29
ATOM     29  CB  ARG A   8      16.516  31.967  25.822  0.00  0.00    +0.033 C 
BRANCH  29  30
ATOM     30  CG  ARG A   8      17.784  31.303  25.356  0.00  0.00    +0.045 C 
BRANCH  30  31
ATOM     31  CD  ARG A   8      19.056  31.973  25.882  0.00  0.00    +0.174 C 
BRANCH  31  32
ATOM     32  NE  ARG A   8      19.168  33.356  25.414  0.00  0.00    -0.265 N 
ATOM     33  CZ  ARG A   8      18.816  34.464  26.086  0.00  0.00    +0.342 C 
ATOM     34  NH2 ARG A   8      18.392  34.429  27.357  0.00  0.00    -0.292 N 
ATOM     35 HH21 ARG A   8      18.326  33.520  27.858  0.00  0.00    +0.255 HD
ATOM     36 HH22 ARG A   8      18.129  35.311  27.842  0.00  0.00    +0.255 HD
ATOM     37  NH1 ARG A   8      18.941  35.630  25.463  0.00  0.00    -0.292 N 
ATOM     38 HH11 ARG A   8      18.679  36.511  25.950  0.00  0.00    +0.255 HD
ATOM     39 HH12 ARG A   8      19.301  35.663  24.488  0.00  0.00    +0.255 HD
ATOM     40  HE  ARG A   8      19.561  33.495  24.461  0.00  0.00    +0.259 HD
ENDBRANCH  31  32
ENDBRANCH  30  31
ENDBRANCH  29  30
ENDBRANCH  15  29
ENDBRANCH  13  15
ENDBRANCH  10  11
ENDBRANCH   7  10
ENDBRANCH   5   6
BRANCH   5  41
ATOM     41  CB  ILE A   6      11.458  26.391  21.214  0.00  0.00    +0.027 C 
ATOM     42  CG2 ILE A   6      11.006  26.836  22.579  0.00  0.00    +0.002 C 
BRANCH  41  43
ATOM     43  CG1 ILE A   6      10.377  25.602  20.480  0.00  0.00    +0.002 C 
ATOM     44  CD1 ILE A   6       9.193  26.449  20.071  0.00  0.00    +0.000 C 
ENDBRANCH  41  43
ENDBRANCH   5  41
ENDBRANCH   2   5
BRANCH   1  45
ATOM     45  CA  ILE A   5      12.607  27.721  16.668  0.00  0.00    +0.149 C 
BRANCH  45  47
ATOM     46  C   ASN A   4      11.291  26.383  15.070  0.00  0.00    +0.241 C 
ATOM     47  N   ILE A   5      11.503  27.518  15.715  0.00  0.00    -0.297 N 
ATOM     48  H   ILE A   5      10.854  28.311  15.539  0.00  0.00    +0.150 HD
ATOM     49  O   ASN A   4      11.934  25.359  15.280  0.00  0.00    -0.273 OA
BRANCH  46  50
ATOM     50  CA  ASN A   4      10.223  26.380  13.985  0.00  0.00    +0.158 C 
BRANCH  50  52
ATOM     51  C   VAL A   3      11.612  26.506  12.038  0.00  0.00    +0.241 C 
ATOM     52  N   ASN A   4      10.784  25.804  12.772  0.00  0.00    -0.297 N 
ATOM     53  H   ASN A   4      10.528  24.837  12.488  0.00  0.00    +0.150 HD
ATOM     54  O   VAL A   3      11.808  27.725  12.242  0.00  0.00    -0.273 OA
BRANCH  51  55
ATOM     55  CA  VAL A   3      12.351  25.789  10.914  0.00  0.00    +0.149 C 
BRANCH  55  57
ATOM     56  C   PRO A   2      12.497  26.442   8.546  0.00  0.00    +0.241 C 
ATOM     57  N   VAL A   3      12.521  26.735   9.819  0.00  0.00    -0.297 N 
ATOM     58  H   VAL A   3      12.675  27.732  10.073  0.00  0.00    +0.150 HD
ATOM     59  O   PRO A   2      12.304  25.273   8.194  0.00  0.00    -0.273 OA
BRANCH  56  66
ATOM     60  C   THR A   1      11.513  29.550   8.340  0.00  0.00    +0.244 C 
ATOM     61  O   THR A   1      10.448  28.955   8.118  0.00  0.00    -0.273 OA
ATOM     62  N   PRO A   2      12.684  28.922   8.111  0.00  0.00    -0.272 N 
ATOM     63  CD  PRO A   2      14.012  29.503   8.269  0.00  0.00    +0.094 C 
ATOM     64  CG  PRO A   2      14.931  28.341   7.864  0.00  0.00    +0.024 C 
ATOM     65  CB  PRO A   2      14.126  27.454   6.965  0.00  0.00    +0.031 C 
ATOM     66  CA  PRO A   2      12.708  27.574   7.556  0.00  0.00    +0.152 C 
BRANCH  60  67
ATOM     67  CA  THR A   1      11.561  30.955   8.946  0.00  0.00    +0.172 C 
BRANCH  67  68
ATOM     68  N   THR A   1      10.432  31.699   8.453  0.00  0.00    -0.236 NA
ATOM     69  H   THR A   1       9.551  31.657   9.003  0.00  0.00    +0.142 HD
ENDBRANCH  67  68
BRANCH  67  70
ATOM     70  CB  THR A   1      11.515  30.857  10.480  0.00  0.00    +0.135 C 
ATOM     71  CG2 THR A   1      10.245  30.260  11.028  0.00  0.00    +0.034 C 
BRANCH  70  72
ATOM     72  OG1 THR A   1      12.605  29.991  10.879  0.00  0.00    -0.383 OA
ATOM     73  HG1 THR A   1      12.484  29.099  10.466  0.00  0.00    +0.210 HD
ENDBRANCH  70  72
ENDBRANCH  67  70
ENDBRANCH  60  67
ENDBRANCH  56  66
ENDBRANCH  55  57
BRANCH  55  74
ATOM     74  CB  VAL A   3      13.693  25.217  11.380  0.00  0.00    +0.027 C 
ATOM     75  CG2 VAL A   3      14.618  26.302  11.919  0.00  0.00    +0.002 C 
ATOM     76  CG1 VAL A   3      14.490  24.482  10.310  0.00  0.00    +0.002 C 
ENDBRANCH  55  74
ENDBRANCH  51  55
ENDBRANCH  50  52
BRANCH  50  77
ATOM     77  CB  ASN A   4       9.013  25.597  14.446  0.00  0.00    +0.114 C 
BRANCH  77  78
ATOM     78  CG  ASN A   4       7.884  25.605  13.432  0.00  0.00    +0.222 C 
ATOM     79  ND2 ASN A   4       7.384  24.437  13.074  0.00  0.00    -0.329 N 
ATOM     80 HD21 ASN A   4       7.767  23.560  13.482  0.00  0.00    +0.145 HD
ATOM     81 HD22 ASN A   4       6.607  24.393  12.384  0.00  0.00    +0.145 HD
ATOM     82  OD1 ASN A   4       7.465  26.641  12.980  0.00  0.00    -0.275 OA
ENDBRANCH  77  78
ENDBRANCH  50  77
ENDBRANCH  46  50
ENDBRANCH  45  47
BRANCH  45  83
ATOM     83  CB  ILE A   5      13.542  28.812  16.149  0.00  0.00    +0.027 C 
ATOM     84  CG2 ILE A   5      14.584  29.167  17.218  0.00  0.00    +0.002 C 
BRANCH  83  85
ATOM     85  CG1 ILE A   5      14.187  28.404  14.837  0.00  0.00    +0.002 C 
ATOM     86  CD1 ILE A   5      14.816  29.586  14.106  0.00  0.00    +0.000 C 
ENDBRANCH  83  85
ENDBRANCH  45  83
ENDBRANCH   1  45
TORSDOF 32
REMARK  Name = ../refined-set-2016/2avo/2avo_pocket.pdb
REMARK  229 active torsions:
REMARK  status: ('A' for Active; 'I' for Inactive)
REMARK    1  A    between atoms: _1  and  _3
REMARK    2  A    between atoms: _3  and  _4
REMARK    3  A    between atoms: _3  and  _6
REMARK    4  A    between atoms: _6  and  _7
REMARK    5  A    between atoms: _7  and  _8
REMARK    6  A    between atoms: _8  and  _9
REMARK    7  A    between atoms: _18  and  _20
REMARK    8  A    between atoms: _20  and  _21
REMARK    9  A    between atoms: _20  and  _23
REMARK   10  A    between atoms: _23  and  _24
REMARK   11  A    between atoms: _27  and  _29
REMARK   12  A    between atoms: _29  and  _30
REMARK   13  A    between atoms: _29  and  _32
REMARK   14  A    between atoms: _32  and  _33
REMARK   15  A    between atoms: _36  and  _38
REMARK   16  A    between atoms: _38  and  _39
REMARK   17  A    between atoms: _38  and  _41
REMARK   18  A    between atoms: _41  and  _42
REMARK   19  A    between atoms: _45  and  _47
REMARK   20  A    between atoms: _47  and  _48
REMARK   21  A    between atoms: _47  and  _50
REMARK   22  A    between atoms: _50  and  _51
REMARK   23  A    between atoms: _54  and  _56
REMARK   24  A    between atoms: _56  and  _57
REMARK   25  A    between atoms: _56  and  _59
REMARK   26  A    between atoms: _59  and  _60
REMARK   27  A    between atoms: _63  and  _65
REMARK   28  A    between atoms: _65  and  _66
REMARK   29  A    between atoms: _68  and  _70
REMARK   30  A    between atoms: _70  and  _71
REMARK   31  A    between atoms: _74  and  _76
REMARK   32  A    between atoms: _76  and  _77
REMARK   33  A    between atoms: _76  and  _79
REMARK   34  A    between atoms: _79  and  _80
REMARK   35  A    between atoms: _83  and  _85
REMARK   36  A    between atoms: _85  and  _86
REMARK   37  A    between atoms: _85  and  _88
REMARK   38  A    between atoms: _88  and  _89
REMARK   39  A    between atoms: _92  and  _94
REMARK   40  A    between atoms: _94  and  _95
REMARK   41  A    between atoms: _94  and  _97
REMARK   42  A    between atoms: _97  and  _98
REMARK   43  A    between atoms: _101  and  _103
REMARK   44  A    between atoms: _103  and  _104
REMARK   45  A    between atoms: _103  and  _106
REMARK   46  A    between atoms: _109  and  _111
REMARK   47  A    between atoms: _111  and  _112
REMARK   48  A    between atoms: _111  and  _114
REMARK   49  A    between atoms: _114  and  _115
REMARK   50  A    between atoms: _115  and  _116
REMARK   51  A    between atoms: _118  and  _120
REMARK   52  A    between atoms: _120  and  _121
REMARK   53  A    between atoms: _120  and  _123
REMARK   54  A    between atoms: _123  and  _124
REMARK   55  A    between atoms: _127  and  _129
REMARK   56  A    between atoms: _129  and  _130
REMARK   57  A    between atoms: _132  and  _134
REMARK   58  A    between atoms: _134  and  _135
REMARK   59  A    between atoms: _137  and  _139
REMARK   60  A    between atoms: _139  and  _140
REMARK   61  A    between atoms: _139  and  _142
REMARK   62  A    between atoms: _142  and  _143
REMARK   63  A    between atoms: _146  and  _148
REMARK   64  A    between atoms: _148  and  _149
REMARK   65  A    between atoms: _151  and  _153
REMARK   66  A    between atoms: _153  and  _154
REMARK   67  A    between atoms: _156  and  _158
REMARK   68  A    between atoms: _158  and  _159
REMARK   69  A    between atoms: _158  and  _161
REMARK   70  A    between atoms: _161  and  _162
REMARK   71  A    between atoms: _168  and  _170
REMARK   72  A    between atoms: _170  and  _171
REMARK   73  A    between atoms: _170  and  _173
REMARK   74  A    between atoms: _173  and  _174
REMARK   75  A    between atoms: _177  and  _179
REMARK   76  A    between atoms: _179  and  _180
REMARK   77  A    between atoms: _179  and  _182
REMARK   78  A    between atoms: _185  and  _187
REMARK   79  A    between atoms: _187  and  _188
REMARK   80  A    between atoms: _187  and  _190
REMARK   81  A    between atoms: _190  and  _191
REMARK   82  A    between atoms: _194  and  _196
REMARK   83  A    between atoms: _196  and  _197
REMARK   84  A    between atoms: _196  and  _199
REMARK   85  A    between atoms: _199  and  _200
REMARK   86  A    between atoms: _204  and  _205
REMARK   87  A    between atoms: _210  and  _212
REMARK   88  A    between atoms: _212  and  _213
REMARK   89  A    between atoms: _212  and  _215
REMARK   90  A    between atoms: _218  and  _220
REMARK   91  A    between atoms: _220  and  _221
REMARK   92  A    between atoms: _220  and  _223
REMARK   93  A    between atoms: _223  and  _224
REMARK   94  A    between atoms: _229  and  _231
REMARK   95  A    between atoms: _231  and  _232
REMARK   96  A    between atoms: _231  and  _234
REMARK   97  A    between atoms: _234  and  _235
REMARK   98  A    between atoms: _238  and  _240
REMARK   99  A    between atoms: _240  and  _241
REMARK  100  A    between atoms: _240  and  _243
REMARK  101  A    between atoms: _243  and  _244
REMARK  102  A    between atoms: _247  and  _249
REMARK  103  A    between atoms: _249  and  _250
REMARK  104  A    between atoms: _252  and  _254
REMARK  105  A    between atoms: _254  and  _255
REMARK  106  A    between atoms: _254  and  _257
REMARK  107  A    between atoms: _257  and  _258
REMARK  108  A    between atoms: _258  and  _259
REMARK  109  A    between atoms: _259  and  _260
REMARK  110  A    between atoms: _269  and  _271
REMARK  111  A    between atoms: _271  and  _272
REMARK  112  A    between atoms: _271  and  _274
REMARK  113  A    between atoms: _274  and  _275
REMARK  114  A    between atoms: _280  and  _282
REMARK  115  A    between atoms: _282  and  _283
REMARK  116  A    between atoms: _282  and  _285
REMARK  117  A    between atoms: _285  and  _286
REMARK  118  A    between atoms: _286  and  _287
REMARK  119  A    between atoms: _287  and  _288
REMARK  120  A    between atoms: _297  and  _299
REMARK  121  A    between atoms: _299  and  _300
REMARK  122  A    between atoms: _299  and  _302
REMARK  123  A    between atoms: _302  and  _303
REMARK  124  A    between atoms: _306  and  _308
REMARK  125  A    between atoms: _308  and  _309
REMARK  126  A    between atoms: _308  and  _311
REMARK  127  A    between atoms: _311  and  _312
REMARK  128  A    between atoms: _315  and  _317
REMARK  129  A    between atoms: _317  and  _318
REMARK  130  A    between atoms: _317  and  _320
REMARK  131  A    between atoms: _320  and  _321
REMARK  132  A    between atoms: _324  and  _326
REMARK  133  A    between atoms: _326  and  _327
REMARK  134  A    between atoms: _326  and  _329
REMARK  135  A    between atoms: _329  and  _330
REMARK  136  A    between atoms: _333  and  _335
REMARK  137  A    between atoms: _335  and  _336
REMARK  138  A    between atoms: _338  and  _340
REMARK  139  A    between atoms: _340  and  _341
REMARK  140  A    between atoms: _344  and  _346
REMARK  141  A    between atoms: _346  and  _347
REMARK  142  A    between atoms: _346  and  _349
REMARK  143  A    between atoms: _349  and  _350
REMARK  144  A    between atoms: _353  and  _355
REMARK  145  A    between atoms: _355  and  _356
REMARK  146  A    between atoms: _355  and  _358
REMARK  147  A    between atoms: _358  and  _359
REMARK  148  A    between atoms: _362  and  _364
REMARK  149  A    between atoms: _364  and  _365
REMARK  150  A    between atoms: _364  and  _367
REMARK  151  A    between atoms: _367  and  _368
REMARK  152  A    between atoms: _371  and  _373
REMARK  153  A    between atoms: _373  and  _374
REMARK  154  A    between atoms: _373  and  _376
REMARK  155  A    between atoms: _379  and  _381
REMARK  156  A    between atoms: _381  and  _382
REMARK  157  A    between atoms: _381  and  _384
REMARK  158  A    between atoms: _384  and  _385
REMARK  159  A    between atoms: _388  and  _390
REMARK  160  A    between atoms: _390  and  _391
REMARK  161  A    between atoms: _390  and  _393
REMARK  162  A    between atoms: _393  and  _394
REMARK  163  A    between atoms: _394  and  _395
REMARK  164  A    between atoms: _395  and  _396
REMARK  165  A    between atoms: _396  and  _397
REMARK  166  A    between atoms: _401  and  _403
REMARK  167  A    between atoms: _403  and  _404
REMARK  168  A    between atoms: _403  and  _406
REMARK  169  A    between atoms: _406  and  _407
REMARK  170  A    between atoms: _407  and  _408
REMARK  171  A    between atoms: _410  and  _412
REMARK  172  A    between atoms: _412  and  _413
REMARK  173  A    between atoms: _412  and  _415
REMARK  174  A    between atoms: _415  and  _416
REMARK  175  A    between atoms: _419  and  _421
REMARK  176  A    between atoms: _421  and  _422
REMARK  177  A    between atoms: _424  and  _426
REMARK  178  A    between atoms: _426  and  _427
REMARK  179  A    between atoms: _429  and  _431
REMARK  180  A    between atoms: _431  and  _432
REMARK  181  A    between atoms: _431  and  _434
REMARK  182  A    between atoms: _434  and  _435
REMARK  183  A    between atoms: _438  and  _440
REMARK  184  A    between atoms: _440  and  _441
REMARK  185  A    between atoms: _443  and  _445
REMARK  186  A    between atoms: _445  and  _446
REMARK  187  A    between atoms: _448  and  _450
REMARK  188  A    between atoms: _450  and  _451
REMARK  189  A    between atoms: _450  and  _453
REMARK  190  A    between atoms: _453  and  _454
REMARK  191  A    between atoms: _457  and  _459
REMARK  192  A    between atoms: _459  and  _460
REMARK  193  A    between atoms: _459  and  _462
REMARK  194  A    between atoms: _465  and  _467
REMARK  195  A    between atoms: _467  and  _468
REMARK  196  A    between atoms: _467  and  _470
REMARK  197  A    between atoms: _470  and  _471
REMARK  198  A    between atoms: _474  and  _476
REMARK  199  A    between atoms: _476  and  _477
REMARK  200  A    between atoms: _476  and  _479
REMARK  201  A    between atoms: _479  and  _480
REMARK  202  A    between atoms: _484  and  _485
REMARK  203  A    between atoms: _490  and  _492
REMARK  204  A    between atoms: _492  and  _493
REMARK  205  A    between atoms: _492  and  _495
REMARK  206  A    between atoms: _498  and  _500
REMARK  207  A    between atoms: _500  and  _501
REMARK  208  A    between atoms: _500  and  _503
REMARK  209  A    between atoms: _503  and  _504
REMARK  210  A    between atoms: _509  and  _511
REMARK  211  A    between atoms: _511  and  _512
REMARK  212  A    between atoms: _511  and  _514
REMARK  213  A    between atoms: _514  and  _515
REMARK  214  A    between atoms: _518  and  _520
REMARK  215  A    between atoms: _520  and  _521
REMARK  216  A    between atoms: _520  and  _523
REMARK  217  A    between atoms: _523  and  _524
REMARK  218  A    between atoms: _527  and  _529
REMARK  219  A    between atoms: _529  and  _530
REMARK  220  A    between atoms: _532  and  _534
REMARK  221  A    between atoms: _534  and  _535
REMARK  222  A    between atoms: _534  and  _537
REMARK  223  A    between atoms: _537  and  _538
REMARK  224  A    between atoms: _538  and  _539
REMARK  225  A    between atoms: _539  and  _540
REMARK  226  A    between atoms: _549  and  _551
REMARK  227  A    between atoms: _551  and  _552
REMARK  228  A    between atoms: _551  and  _554
REMARK  229  A    between atoms: _554  and  _555
REMARK                            x       y       z     vdW  Elec       q    Type
REMARK                         _______ _______ _______ _____ _____    ______ ____
ROOT
ATOM      1  NE  ARG A   1      23.029  36.519  22.724  0.00  0.00    -0.265 N 
ATOM      2  HE  ARG A   1      22.422  35.692  22.553  0.00  0.00    +0.259 HD
ATOM      3  CZ  ARG A   1      23.732  36.951  21.687  0.00  0.00    +0.342 C 
ATOM      4  NH2 ARG A   1      24.549  38.002  21.800  0.00  0.00    -0.292 N 
ATOM      5 HH21 ARG A   1      24.640  38.494  22.712  0.00  0.00    +0.255 HD
ATOM      6 HH22 ARG A   1      25.094  38.328  20.976  0.00  0.00    +0.255 HD
ATOM      7  NH1 ARG A   1      23.659  36.352  20.502  0.00  0.00    -0.292 N 
ATOM      8 HH11 ARG A   1      23.040  35.526  20.374  0.00  0.00    +0.255 HD
ATOM      9 HH12 ARG A   1      24.221  36.710  19.703  0.00  0.00    +0.255 HD
ENDROOT
BRANCH   1  10
ATOM     10  CD  ARG A   1      23.004  37.064  24.076  0.00  0.00    +0.174 C 
BRANCH  10  11
ATOM     11  CG  ARG A   1      22.364  36.162  25.116  0.00  0.00    +0.045 C 
BRANCH  11  12
ATOM     12  CB  ARG A   1      23.312  35.099  25.667  0.00  0.00    +0.029 C 
BRANCH  12  13
ATOM     13  CA  ARG A   1      22.656  34.140  26.663  0.00  0.00    +0.133 C 
BRANCH  13  14
ATOM     14  N   ARG A   1      22.021  34.910  27.725  0.00  0.00    -0.239 NA
ATOM     15  H   ARG A   1      22.053  35.950  27.721  0.00  0.00    +0.142 HD
ENDBRANCH  13  14
BRANCH  13  16
ATOM     16  C   ARG A   1      23.685  33.211  27.281  0.00  0.00    +0.224 C 
ATOM     17  O   ARG A   1      24.483  33.662  28.154  0.00  0.00    -0.287 OA
ENDBRANCH  13  16
ENDBRANCH  12  13
ENDBRANCH  11  12
ENDBRANCH  10  11
ENDBRANCH   1  10
TORSDOF 6
REMARK  Name = ../refined-set-2016/2avo/2avo_pocket.pdb
REMARK  229 active torsions:
REMARK  status: ('A' for Active; 'I' for Inactive)
REMARK    1  A    between atoms: _1  and  _3
REMARK    2  A    between atoms: _3  and  _4
REMARK    3  A    between atoms: _3  and  _6
REMARK    4  A    between atoms: _6  and  _7
REMARK    5  A    between atoms: _7  and  _8
REMARK    6  A    between atoms: _8  and  _9
REMARK    7  A    between atoms: _18  and  _20
REMARK    8  A    between atoms: _20  and  _21
REMARK    9  A    between atoms: _20  and  _23
REMARK   10  A    between atoms: _23  and  _24
REMARK   11  A    between atoms: _27  and  _29
REMARK   12  A    between atoms: _29  and  _30
REMARK   13  A    between atoms: _29  and  _32
REMARK   14  A    between atoms: _32  and  _33
REMARK   15  A    between atoms: _36  and  _38
REMARK   16  A    between atoms: _38  and  _39
REMARK   17  A    between atoms: _38  and  _41
REMARK   18  A    between atoms: _41  and  _42
REMARK   19  A    between atoms: _45  and  _47
REMARK   20  A    between atoms: _47  and  _48
REMARK   21  A    between atoms: _47  and  _50
REMARK   22  A    between atoms: _50  and  _51
REMARK   23  A    between atoms: _54  and  _56
REMARK   24  A    between atoms: _56  and  _57
REMARK   25  A    between atoms: _56  and  _59
REMARK   26  A    between atoms: _59  and  _60
REMARK   27  A    between atoms: _63  and  _65
REMARK   28  A    between atoms: _65  and  _66
REMARK   29  A    between atoms: _68  and  _70
REMARK   30  A    between atoms: _70  and  _71
REMARK   31  A    between atoms: _74  and  _76
REMARK   32  A    between atoms: _76  and  _77
REMARK   33  A    between atoms: _76  and  _79
REMARK   34  A    between atoms: _79  and  _80
REMARK   35  A    between atoms: _83  and  _85
REMARK   36  A    between atoms: _85  and  _86
REMARK   37  A    between atoms: _85  and  _88
REMARK   38  A    between atoms: _88  and  _89
REMARK   39  A    between atoms: _92  and  _94
REMARK   40  A    between atoms: _94  and  _95
REMARK   41  A    between atoms: _94  and  _97
REMARK   42  A    between atoms: _97  and  _98
REMARK   43  A    between atoms: _101  and  _103
REMARK   44  A    between atoms: _103  and  _104
REMARK   45  A    between atoms: _103  and  _106
REMARK   46  A    between atoms: _109  and  _111
REMARK   47  A    between atoms: _111  and  _112
REMARK   48  A    between atoms: _111  and  _114
REMARK   49  A    between atoms: _114  and  _115
REMARK   50  A    between atoms: _115  and  _116
REMARK   51  A    between atoms: _118  and  _120
REMARK   52  A    between atoms: _120  and  _121
REMARK   53  A    between atoms: _120  and  _123
REMARK   54  A    between atoms: _123  and  _124
REMARK   55  A    between atoms: _127  and  _129
REMARK   56  A    between atoms: _129  and  _130
REMARK   57  A    between atoms: _132  and  _134
REMARK   58  A    between atoms: _134  and  _135
REMARK   59  A    between atoms: _137  and  _139
REMARK   60  A    between atoms: _139  and  _140
REMARK   61  A    between atoms: _139  and  _142
REMARK   62  A    between atoms: _142  and  _143
REMARK   63  A    between atoms: _146  and  _148
REMARK   64  A    between atoms: _148  and  _149
REMARK   65  A    between atoms: _151  and  _153
REMARK   66  A    between atoms: _153  and  _154
REMARK   67  A    between atoms: _156  and  _158
REMARK   68  A    between atoms: _158  and  _159
REMARK   69  A    between atoms: _158  and  _161
REMARK   70  A    between atoms: _161  and  _162
REMARK   71  A    between atoms: _168  and  _170
REMARK   72  A    between atoms: _170  and  _171
REMARK   73  A    between atoms: _170  and  _173
REMARK   74  A    between atoms: _173  and  _174
REMARK   75  A    between atoms: _177  and  _179
REMARK   76  A    between atoms: _179  and  _180
REMARK   77  A    between atoms: _179  and  _182
REMARK   78  A    between atoms: _185  and  _187
REMARK   79  A    between atoms: _187  and  _188
REMARK   80  A    between atoms: _187  and  _190
REMARK   81  A    between atoms: _190  and  _191
REMARK   82  A    between atoms: _194  and  _196
REMARK   83  A    between atoms: _196  and  _197
REMARK   84  A    between atoms: _196  and  _199
REMARK   85  A    between atoms: _199  and  _200
REMARK   86  A    between atoms: _204  and  _205
REMARK   87  A    between atoms: _210  and  _212
REMARK   88  A    between atoms: _212  and  _213
REMARK   89  A    between atoms: _212  and  _215
REMARK   90  A    between atoms: _218  and  _220
REMARK   91  A    between atoms: _220  and  _221
REMARK   92  A    between atoms: _220  and  _223
REMARK   93  A    between atoms: _223  and  _224
REMARK   94  A    between atoms: _229  and  _231
REMARK   95  A    between atoms: _231  and  _232
REMARK   96  A    between atoms: _231  and  _234
REMARK   97  A    between atoms: _234  and  _235
REMARK   98  A    between atoms: _238  and  _240
REMARK   99  A    between atoms: _240  and  _241
REMARK  100  A    between atoms: _240  and  _243
REMARK  101  A    between atoms: _243  and  _244
REMARK  102  A    between atoms: _247  and  _249
REMARK  103  A    between atoms: _249  and  _250
REMARK  104  A    between atoms: _252  and  _254
REMARK  105  A    between atoms: _254  and  _255
REMARK  106  A    between atoms: _254  and  _257
REMARK  107  A    between atoms: _257  and  _258
REMARK  108  A    between atoms: _258  and  _259
REMARK  109  A    between atoms: _259  and  _260
REMARK  110  A    between atoms: _269  and  _271
REMARK  111  A    between atoms: _271  and  _272
REMARK  112  A    between atoms: _271  and  _274
REMARK  113  A    between atoms: _274  and  _275
REMARK  114  A    between atoms: _280  and  _282
REMARK  115  A    between atoms: _282  and  _283
REMARK  116  A    between atoms: _282  and  _285
REMARK  117  A    between atoms: _285  and  _286
REMARK  118  A    between atoms: _286  and  _287
REMARK  119  A    between atoms: _287  and  _288
REMARK  120  A    between atoms: _297  and  _299
REMARK  121  A    between atoms: _299  and  _300
REMARK  122  A    between atoms: _299  and  _302
REMARK  123  A    between atoms: _302  and  _303
REMARK  124  A    between atoms: _306  and  _308
REMARK  125  A    between atoms: _308  and  _309
REMARK  126  A    between atoms: _308  and  _311
REMARK  127  A    between atoms: _311  and  _312
REMARK  128  A    between atoms: _315  and  _317
REMARK  129  A    between atoms: _317  and  _318
REMARK  130  A    between atoms: _317  and  _320
REMARK  131  A    between atoms: _320  and  _321
REMARK  132  A    between atoms: _324  and  _326
REMARK  133  A    between atoms: _326  and  _327
REMARK  134  A    between atoms: _326  and  _329
REMARK  135  A    between atoms: _329  and  _330
REMARK  136  A    between atoms: _333  and  _335
REMARK  137  A    between atoms: _335  and  _336
REMARK  138  A    between atoms: _338  and  _340
REMARK  139  A    between atoms: _340  and  _341
REMARK  140  A    between atoms: _344  and  _346
REMARK  141  A    between atoms: _346  and  _347
REMARK  142  A    between atoms: _346  and  _349
REMARK  143  A    between atoms: _349  and  _350
REMARK  144  A    between atoms: _353  and  _355
REMARK  145  A    between atoms: _355  and  _356
REMARK  146  A    between atoms: _355  and  _358
REMARK  147  A    between atoms: _358  and  _359
REMARK  148  A    between atoms: _362  and  _364
REMARK  149  A    between atoms: _364  and  _365
REMARK  150  A    between atoms: _364  and  _367
REMARK  151  A    between atoms: _367  and  _368
REMARK  152  A    between atoms: _371  and  _373
REMARK  153  A    between atoms: _373  and  _374
REMARK  154  A    between atoms: _373  and  _376
REMARK  155  A    between atoms: _379  and  _381
REMARK  156  A    between atoms: _381  and  _382
REMARK  157  A    between atoms: _381  and  _384
REMARK  158  A    between atoms: _384  and  _385
REMARK  159  A    between atoms: _388  and  _390
REMARK  160  A    between atoms: _390  and  _391
REMARK  161  A    between atoms: _390  and  _393
REMARK  162  A    between atoms: _393  and  _394
REMARK  163  A    between atoms: _394  and  _395
REMARK  164  A    between atoms: _395  and  _396
REMARK  165  A    between atoms: _396  and  _397
REMARK  166  A    between atoms: _401  and  _403
REMARK  167  A    between atoms: _403  and  _404
REMARK  168  A    between atoms: _403  and  _406
REMARK  169  A    between atoms: _406  and  _407
REMARK  170  A    between atoms: _407  and  _408
REMARK  171  A    between atoms: _410  and  _412
REMARK  172  A    between atoms: _412  and  _413
REMARK  173  A    between atoms: _412  and  _415
REMARK  174  A    between atoms: _415  and  _416
REMARK  175  A    between atoms: _419  and  _421
REMARK  176  A    between atoms: _421  and  _422
REMARK  177  A    between atoms: _424  and  _426
REMARK  178  A    between atoms: _426  and  _427
REMARK  179  A    between atoms: _429  and  _431
REMARK  180  A    between atoms: _431  and  _432
REMARK  181  A    between atoms: _431  and  _434
REMARK  182  A    between atoms: _434  and  _435
REMARK  183  A    between atoms: _438  and  _440
REMARK  184  A    between atoms: _440  and  _441
REMARK  185  A    between atoms: _443  and  _445
REMARK  186  A    between atoms: _445  and  _446
REMARK  187  A    between atoms: _448  and  _450
REMARK  188  A    between atoms: _450  and  _451
REMARK  189  A    between atoms: _450  and  _453
REMARK  190  A    between atoms: _453  and  _454
REMARK  191  A    between atoms: _457  and  _459
REMARK  192  A    between atoms: _459  and  _460
REMARK  193  A    between atoms: _459  and  _462
REMARK  194  A    between atoms: _465  and  _467
REMARK  195  A    between atoms: _467  and  _468
REMARK  196  A    between atoms: _467  and  _470
REMARK  197  A    between atoms: _470  and  _471
REMARK  198  A    between atoms: _474  and  _476
REMARK  199  A    between atoms: _476  and  _477
REMARK  200  A    between atoms: _476  and  _479
REMARK  201  A    between atoms: _479  and  _480
REMARK  202  A    between atoms: _484  and  _485
REMARK  203  A    between atoms: _490  and  _492
REMARK  204  A    between atoms: _492  and  _493
REMARK  205  A    between atoms: _492  and  _495
REMARK  206  A    between atoms: _498  and  _500
REMARK  207  A    between atoms: _500  and  _501
REMARK  208  A    between atoms: _500  and  _503
REMARK  209  A    between atoms: _503  and  _504
REMARK  210  A    between atoms: _509  and  _511
REMARK  211  A    between atoms: _511  and  _512
REMARK  212  A    between atoms: _511  and  _514
REMARK  213  A    between atoms: _514  and  _515
REMARK  214  A    between atoms: _518  and  _520
REMARK  215  A    between atoms: _520  and  _521
REMARK  216  A    between atoms: _520  and  _523
REMARK  217  A    between atoms: _523  and  _524
REMARK  218  A    between atoms: _527  and  _529
REMARK  219  A    between atoms: _529  and  _530
REMARK  220  A    between atoms: _532  and  _534
REMARK  221  A    between atoms: _534  and  _535
REMARK  222  A    between atoms: _534  and  _537
REMARK  223  A    between atoms: _537  and  _538
REMARK  224  A    between atoms: _538  and  _539
REMARK  225  A    between atoms: _539  and  _540
REMARK  226  A    between atoms: _549  and  _551
REMARK  227  A    between atoms: _551  and  _552
REMARK  228  A    between atoms: _551  and  _554
REMARK  229  A    between atoms: _554  and  _555
REMARK                            x       y       z     vdW  Elec       q    Type
REMARK                         _______ _______ _______ _____ _____    ______ ____
ROOT
ATOM      1  C   ALA A   6      24.085  24.307  14.779  0.00  0.00    +0.241 C 
ATOM      2  O   ALA A   6      24.599  23.605  15.680  0.00  0.00    -0.273 OA
ATOM      3  N   ASP A   7      24.060  23.909  13.516  0.00  0.00    -0.297 N 
ATOM      4  H   ASP A   7      23.638  24.518  12.787  0.00  0.00    +0.150 HD
ENDROOT
BRANCH   1   5
ATOM      5  CA  ALA A   6      23.528  25.686  15.087  0.00  0.00    +0.149 C 
ATOM      6  CB  ALA A   6      24.658  26.595  15.565  0.00  0.00    +0.031 C 
BRANCH   5   8
ATOM      7  C   GLY A   5      21.200  25.522  15.831  0.00  0.00    +0.243 C 
ATOM      8  N   ALA A   6      22.496  25.558  16.095  0.00  0.00    -0.297 N 
ATOM      9  H   ALA A   6      22.792  25.490  17.090  0.00  0.00    +0.150 HD
ATOM     10  O   GLY A   5      20.762  25.631  14.670  0.00  0.00    -0.273 OA
BRANCH   7  11
ATOM     11  CA  GLY A   5      20.224  25.392  16.975  0.00  0.00    +0.176 C 
BRANCH  11  13
ATOM     12  C   THR A   4      21.250  24.074  18.745  0.00  0.00    +0.243 C 
ATOM     13  N   GLY A   5      20.842  25.254  18.286  0.00  0.00    -0.295 N 
ATOM     14  H   GLY A   5      20.968  26.099  18.879  0.00  0.00    +0.150 HD
ATOM     15  O   THR A   4      21.040  22.994  18.163  0.00  0.00    -0.273 OA
BRANCH  12  16
ATOM     16  CA  THR A   4      21.982  24.029  20.079  0.00  0.00    +0.176 C 
BRANCH  16  18
ATOM     17  C   ASP A   3      23.476  25.913  19.818  0.00  0.00    +0.241 C 
ATOM     18  N   THR A   4      22.479  25.338  20.494  0.00  0.00    -0.295 N 
ATOM     19  H   THR A   4      22.058  25.820  21.313  0.00  0.00    +0.150 HD
ATOM     20  O   ASP A   3      23.977  25.383  18.812  0.00  0.00    -0.273 OA
BRANCH  17  21
ATOM     21  CA  ASP A   3      23.942  27.284  20.331  0.00  0.00    +0.160 C 
BRANCH  21  24
ATOM     22  C   ILE A   2      25.105  27.723  22.429  0.00  0.00    +0.241 C 
ATOM     23  O   ILE A   2      24.074  28.229  22.930  0.00  0.00    -0.273 OA
ATOM     24  N   ASP A   3      25.083  27.125  21.250  0.00  0.00    -0.297 N 
ATOM     25  H   ASP A   3      25.887  26.530  20.965  0.00  0.00    +0.150 HD
BRANCH  22  26
ATOM     26  CA  ILE A   2      26.438  27.775  23.148  0.00  0.00    +0.148 C 
BRANCH  26  28
ATOM     27  C   LEU A   1      27.300  29.858  22.246  0.00  0.00    +0.238 C 
ATOM     28  N   ILE A   2      26.841  29.162  23.263  0.00  0.00    -0.297 N 
ATOM     29  H   ILE A   2      26.764  29.627  24.190  0.00  0.00    +0.150 HD
ATOM     30  O   LEU A   1      27.529  29.310  21.134  0.00  0.00    -0.274 OA
BRANCH  27  31
ATOM     31  CA  LEU A   1      27.519  31.349  22.419  0.00  0.00    +0.145 C 
BRANCH  31  32
ATOM     32  N   LEU A   1      28.865  31.727  22.083  0.00  0.00    -0.238 NA
ATOM     33  H   LEU A   1      29.065  31.930  21.083  0.00  0.00    +0.142 HD
ENDBRANCH  31  32
BRANCH  31  34
ATOM     34  CB  LEU A   1      26.584  32.128  21.470  0.00  0.00    +0.026 C 
BRANCH  34  35
ATOM     35  CG  LEU A   1      25.079  31.885  21.631  0.00  0.00    +0.002 C 
ATOM     36  CD2 LEU A   1      24.584  32.422  22.973  0.00  0.00    +0.000 C 
ATOM     37  CD1 LEU A   1      24.357  32.539  20.439  0.00  0.00    +0.000 C 
ENDBRANCH  34  35
ENDBRANCH  31  34
ENDBRANCH  27  31
ENDBRANCH  26  28
BRANCH  26  38
ATOM     38  CB  ILE A   2      26.356  27.094  24.519  0.00  0.00    +0.027 C 
ATOM     39  CG2 ILE A   2      25.678  25.724  24.346  0.00  0.00    +0.002 C 
BRANCH  38  40
ATOM     40  CG1 ILE A   2      27.733  27.037  25.187  0.00  0.00    +0.002 C 
ATOM     41  CD1 ILE A   2      27.659  26.419  26.561  0.00  0.00    +0.000 C 
ENDBRANCH  38  40
ENDBRANCH  26  38
ENDBRANCH  22  26
ENDBRANCH  21  24
BRANCH  21  42
ATOM     42  CB  ASP A   3      24.389  28.169  19.190  0.00  0.00    +0.143 C 
BRANCH  42  43
ATOM     43  CG  ASP A   3      23.352  28.597  18.232  0.00  0.00    +0.367 C 
ATOM     44  OD2 ASP A   3      22.246  28.031  18.366  0.00  0.00    -0.246 OA
ATOM     45  OD1 ASP A   3      23.603  29.455  17.365  0.00  0.00    -0.246 OA
ENDBRANCH  42  43
ENDBRANCH  21  42
ENDBRANCH  17  21
ENDBRANCH  16  18
BRANCH  16  46
ATOM     46  CB  THR A   4      21.098  23.406  21.166  0.00  0.00    +0.137 C 
ATOM     47  CG2 THR A   4      21.862  23.133  22.466  0.00  0.00    +0.034 C 
BRANCH  46  48
ATOM     48  OG1 THR A   4      19.977  24.253  21.450  0.00  0.00    -0.382 OA
ATOM     49  HG1 THR A   4      19.439  24.373  20.628  0.00  0.00    +0.210 HD
ENDBRANCH  46  48
ENDBRANCH  16  46
ENDBRANCH  12  16
ENDBRANCH  11  13
ENDBRANCH   7  11
ENDBRANCH   5   8
ENDBRANCH   1   5
BRANCH   3  50
ATOM     50  CA  ASP A   7      24.630  22.605  13.146  0.00  0.00    +0.160 C 
BRANCH  50  51
ATOM     51  C   ASP A   7      26.156  22.610  13.324  0.00  0.00    +0.241 C 
ATOM     52  O   ASP A   7      26.751  21.569  13.662  0.00  0.00    -0.273 OA
ATOM     53  N   ASP A   8      26.776  23.739  13.015  0.00  0.00    -0.297 N 
ATOM     54  H   ASP A   8      26.173  24.565  12.826  0.00  0.00    +0.150 HD
BRANCH  53  55
ATOM     55  CA  ASP A   8      28.220  23.944  12.912  0.00  0.00    +0.160 C 
BRANCH  55  56
ATOM     56  C   ASP A   8      28.679  25.040  13.871  0.00  0.00    +0.241 C 
ATOM     57  O   ASP A   8      27.868  25.746  14.470  0.00  0.00    -0.273 OA
ATOM     58  N   THR A   9      29.967  25.188  13.974  0.00  0.00    -0.295 N 
ATOM     59  H   THR A   9      30.570  24.552  13.415  0.00  0.00    +0.150 HD
BRANCH  58  60
ATOM     60  CA  THR A   9      30.632  26.184  14.819  0.00  0.00    +0.176 C 
BRANCH  60  61
ATOM     61  C   THR A   9      31.222  27.254  13.914  0.00  0.00    +0.243 C 
ATOM     62  N   VAL A  10      30.927  28.511  14.181  0.00  0.00    -0.297 N 
ATOM     63  H   VAL A  10      30.323  28.723  15.000  0.00  0.00    +0.150 HD
ATOM     64  O   THR A   9      31.943  26.921  12.955  0.00  0.00    -0.273 OA
BRANCH  62  65
ATOM     65  CA  VAL A  10      31.417  29.604  13.371  0.00  0.00    +0.149 C 
BRANCH  65  66
ATOM     66  C   VAL A  10      31.906  30.717  14.294  0.00  0.00    +0.241 C 
ATOM     67  O   VAL A  10      31.228  31.174  15.199  0.00  0.00    -0.273 OA
ATOM     68  N   ILE A  11      33.137  31.170  14.016  0.00  0.00    -0.298 N 
ATOM     69  H   ILE A  11      33.612  30.772  13.181  0.00  0.00    +0.150 HD
BRANCH  68  70
ATOM     70  CA  ILE A  11      33.860  32.161  14.774  0.00  0.00    +0.137 C 
BRANCH  70  71
ATOM     71  C   ILE A  11      34.065  33.403  13.891  0.00  0.00    +0.227 C 
ATOM     72  O   ILE A  11      34.259  33.259  12.685  0.00  0.00    -0.286 OA
ENDBRANCH  70  71
BRANCH  70  73
ATOM     73  CB  ILE A  11      35.235  31.581  15.261  0.00  0.00    +0.026 C 
ATOM     74  CG2 ILE A  11      36.048  32.622  16.026  0.00  0.00    +0.002 C 
BRANCH  73  75
ATOM     75  CG1 ILE A  11      35.070  30.312  16.083  0.00  0.00    +0.002 C 
ATOM     76  CD1 ILE A  11      34.170  30.466  17.268  0.00  0.00    +0.000 C 
ENDBRANCH  73  75
ENDBRANCH  70  73
ENDBRANCH  68  70
ENDBRANCH  65  66
BRANCH  65  77
ATOM     77  CB  VAL A  10      30.403  30.293  12.439  0.00  0.00    +0.027 C 
ATOM     78  CG2 VAL A  10      29.401  29.270  12.004  0.00  0.00    +0.002 C 
ATOM     79  CG1 VAL A  10      31.108  30.928  11.249  0.00  0.00    +0.002 C 
ENDBRANCH  65  77
ENDBRANCH  62  65
ENDBRANCH  60  61
BRANCH  60  80
ATOM     80  CB  THR A   9      31.742  25.489  15.637  0.00  0.00    +0.137 C 
ATOM     81  CG2 THR A   9      32.642  26.444  16.372  0.00  0.00    +0.034 C 
BRANCH  80  82
ATOM     82  OG1 THR A   9      31.103  24.609  16.587  0.00  0.00    -0.382 OA
ATOM     83  HG1 THR A   9      30.562  23.938  16.101  0.00  0.00    +0.210 HD
ENDBRANCH  80  82
ENDBRANCH  60  80
ENDBRANCH  58  60
ENDBRANCH  55  56
BRANCH  55  84
ATOM     84  CB  ASP A   8      28.607  24.301  11.479  0.00  0.00    +0.143 C 
BRANCH  84  85
ATOM     85  CG  ASP A   8      28.019  23.436  10.425  0.00  0.00    +0.367 C 
ATOM     86  OD2 ASP A   8      28.066  22.194  10.591  0.00  0.00    -0.246 OA
ATOM     87  OD1 ASP A   8      27.451  24.012   9.459  0.00  0.00    -0.246 OA
ENDBRANCH  84  85
ENDBRANCH  55  84
ENDBRANCH  53  55
ENDBRANCH  50  51
BRANCH  50  88
ATOM     88  CB  ASP A   7      24.270  22.240  11.711  0.00  0.00    +0.143 C 
BRANCH  88  89
ATOM     89  CG  ASP A   7      22.801  22.107  11.475  0.00  0.00    +0.367 C 
ATOM     90  OD2 ASP A   7      22.032  21.655  12.342  0.00  0.00    -0.246 OA
ATOM     91  OD1 ASP A   7      22.366  22.518  10.350  0.00  0.00    -0.246 OA
ENDBRANCH  88  89
ENDBRANCH  50  88
ENDBRANCH   3  50
TORSDOF 39
REMARK  Name = ../refined-set-2016/2avo/2avo_pocket.pdb
REMARK  229 active torsions:
REMARK  status: ('A' for Active; 'I' for Inactive)
REMARK    1  A    between atoms: _1  and  _3
REMARK    2  A    between atoms: _3  and  _4
REMARK    3  A    between atoms: _3  and  _6
REMARK    4  A    between atoms: _6  and  _7
REMARK    5  A    between atoms: _7  and  _8
REMARK    6  A    between atoms: _8  and  _9
REMARK    7  A    between atoms: _18  and  _20
REMARK    8  A    between atoms: _20  and  _21
REMARK    9  A    between atoms: _20  and  _23
REMARK   10  A    between atoms: _23  and  _24
REMARK   11  A    between atoms: _27  and  _29
REMARK   12  A    between atoms: _29  and  _30
REMARK   13  A    between atoms: _29  and  _32
REMARK   14  A    between atoms: _32  and  _33
REMARK   15  A    between atoms: _36  and  _38
REMARK   16  A    between atoms: _38  and  _39
REMARK   17  A    between atoms: _38  and  _41
REMARK   18  A    between atoms: _41  and  _42
REMARK   19  A    between atoms: _45  and  _47
REMARK   20  A    between atoms: _47  and  _48
REMARK   21  A    between atoms: _47  and  _50
REMARK   22  A    between atoms: _50  and  _51
REMARK   23  A    between atoms: _54  and  _56
REMARK   24  A    between atoms: _56  and  _57
REMARK   25  A    between atoms: _56  and  _59
REMARK   26  A    between atoms: _59  and  _60
REMARK   27  A    between atoms: _63  and  _65
REMARK   28  A    between atoms: _65  and  _66
REMARK   29  A    between atoms: _68  and  _70
REMARK   30  A    between atoms: _70  and  _71
REMARK   31  A    between atoms: _74  and  _76
REMARK   32  A    between atoms: _76  and  _77
REMARK   33  A    between atoms: _76  and  _79
REMARK   34  A    between atoms: _79  and  _80
REMARK   35  A    between atoms: _83  and  _85
REMARK   36  A    between atoms: _85  and  _86
REMARK   37  A    between atoms: _85  and  _88
REMARK   38  A    between atoms: _88  and  _89
REMARK   39  A    between atoms: _92  and  _94
REMARK   40  A    between atoms: _94  and  _95
REMARK   41  A    between atoms: _94  and  _97
REMARK   42  A    between atoms: _97  and  _98
REMARK   43  A    between atoms: _101  and  _103
REMARK   44  A    between atoms: _103  and  _104
REMARK   45  A    between atoms: _103  and  _106
REMARK   46  A    between atoms: _109  and  _111
REMARK   47  A    between atoms: _111  and  _112
REMARK   48  A    between atoms: _111  and  _114
REMARK   49  A    between atoms: _114  and  _115
REMARK   50  A    between atoms: _115  and  _116
REMARK   51  A    between atoms: _118  and  _120
REMARK   52  A    between atoms: _120  and  _121
REMARK   53  A    between atoms: _120  and  _123
REMARK   54  A    between atoms: _123  and  _124
REMARK   55  A    between atoms: _127  and  _129
REMARK   56  A    between atoms: _129  and  _130
REMARK   57  A    between atoms: _132  and  _134
REMARK   58  A    between atoms: _134  and  _135
REMARK   59  A    between atoms: _137  and  _139
REMARK   60  A    between atoms: _139  and  _140
REMARK   61  A    between atoms: _139  and  _142
REMARK   62  A    between atoms: _142  and  _143
REMARK   63  A    between atoms: _146  and  _148
REMARK   64  A    between atoms: _148  and  _149
REMARK   65  A    between atoms: _151  and  _153
REMARK   66  A    between atoms: _153  and  _154
REMARK   67  A    between atoms: _156  and  _158
REMARK   68  A    between atoms: _158  and  _159
REMARK   69  A    between atoms: _158  and  _161
REMARK   70  A    between atoms: _161  and  _162
REMARK   71  A    between atoms: _168  and  _170
REMARK   72  A    between atoms: _170  and  _171
REMARK   73  A    between atoms: _170  and  _173
REMARK   74  A    between atoms: _173  and  _174
REMARK   75  A    between atoms: _177  and  _179
REMARK   76  A    between atoms: _179  and  _180
REMARK   77  A    between atoms: _179  and  _182
REMARK   78  A    between atoms: _185  and  _187
REMARK   79  A    between atoms: _187  and  _188
REMARK   80  A    between atoms: _187  and  _190
REMARK   81  A    between atoms: _190  and  _191
REMARK   82  A    between atoms: _194  and  _196
REMARK   83  A    between atoms: _196  and  _197
REMARK   84  A    between atoms: _196  and  _199
REMARK   85  A    between atoms: _199  and  _200
REMARK   86  A    between atoms: _204  and  _205
REMARK   87  A    between atoms: _210  and  _212
REMARK   88  A    between atoms: _212  and  _213
REMARK   89  A    between atoms: _212  and  _215
REMARK   90  A    between atoms: _218  and  _220
REMARK   91  A    between atoms: _220  and  _221
REMARK   92  A    between atoms: _220  and  _223
REMARK   93  A    between atoms: _223  and  _224
REMARK   94  A    between atoms: _229  and  _231
REMARK   95  A    between atoms: _231  and  _232
REMARK   96  A    between atoms: _231  and  _234
REMARK   97  A    between atoms: _234  and  _235
REMARK   98  A    between atoms: _238  and  _240
REMARK   99  A    between atoms: _240  and  _241
REMARK  100  A    between atoms: _240  and  _243
REMARK  101  A    between atoms: _243  and  _244
REMARK  102  A    between atoms: _247  and  _249
REMARK  103  A    between atoms: _249  and  _250
REMARK  104  A    between atoms: _252  and  _254
REMARK  105  A    between atoms: _254  and  _255
REMARK  106  A    between atoms: _254  and  _257
REMARK  107  A    between atoms: _257  and  _258
REMARK  108  A    between atoms: _258  and  _259
REMARK  109  A    between atoms: _259  and  _260
REMARK  110  A    between atoms: _269  and  _271
REMARK  111  A    between atoms: _271  and  _272
REMARK  112  A    between atoms: _271  and  _274
REMARK  113  A    between atoms: _274  and  _275
REMARK  114  A    between atoms: _280  and  _282
REMARK  115  A    between atoms: _282  and  _283
REMARK  116  A    between atoms: _282  and  _285
REMARK  117  A    between atoms: _285  and  _286
REMARK  118  A    between atoms: _286  and  _287
REMARK  119  A    between atoms: _287  and  _288
REMARK  120  A    between atoms: _297  and  _299
REMARK  121  A    between atoms: _299  and  _300
REMARK  122  A    between atoms: _299  and  _302
REMARK  123  A    between atoms: _302  and  _303
REMARK  124  A    between atoms: _306  and  _308
REMARK  125  A    between atoms: _308  and  _309
REMARK  126  A    between atoms: _308  and  _311
REMARK  127  A    between atoms: _311  and  _312
REMARK  128  A    between atoms: _315  and  _317
REMARK  129  A    between atoms: _317  and  _318
REMARK  130  A    between atoms: _317  and  _320
REMARK  131  A    between atoms: _320  and  _321
REMARK  132  A    between atoms: _324  and  _326
REMARK  133  A    between atoms: _326  and  _327
REMARK  134  A    between atoms: _326  and  _329
REMARK  135  A    between atoms: _329  and  _330
REMARK  136  A    between atoms: _333  and  _335
REMARK  137  A    between atoms: _335  and  _336
REMARK  138  A    between atoms: _338  and  _340
REMARK  139  A    between atoms: _340  and  _341
REMARK  140  A    between atoms: _344  and  _346
REMARK  141  A    between atoms: _346  and  _347
REMARK  142  A    between atoms: _346  and  _349
REMARK  143  A    between atoms: _349  and  _350
REMARK  144  A    between atoms: _353  and  _355
REMARK  145  A    between atoms: _355  and  _356
REMARK  146  A    between atoms: _355  and  _358
REMARK  147  A    between atoms: _358  and  _359
REMARK  148  A    between atoms: _362  and  _364
REMARK  149  A    between atoms: _364  and  _365
REMARK  150  A    between atoms: _364  and  _367
REMARK  151  A    between atoms: _367  and  _368
REMARK  152  A    between atoms: _371  and  _373
REMARK  153  A    between atoms: _373  and  _374
REMARK  154  A    between atoms: _373  and  _376
REMARK  155  A    between atoms: _379  and  _381
REMARK  156  A    between atoms: _381  and  _382
REMARK  157  A    between atoms: _381  and  _384
REMARK  158  A    between atoms: _384  and  _385
REMARK  159  A    between atoms: _388  and  _390
REMARK  160  A    between atoms: _390  and  _391
REMARK  161  A    between atoms: _390  and  _393
REMARK  162  A    between atoms: _393  and  _394
REMARK  163  A    between atoms: _394  and  _395
REMARK  164  A    between atoms: _395  and  _396
REMARK  165  A    between atoms: _396  and  _397
REMARK  166  A    between atoms: _401  and  _403
REMARK  167  A    between atoms: _403  and  _404
REMARK  168  A    between atoms: _403  and  _406
REMARK  169  A    between atoms: _406  and  _407
REMARK  170  A    between atoms: _407  and  _408
REMARK  171  A    between atoms: _410  and  _412
REMARK  172  A    between atoms: _412  and  _413
REMARK  173  A    between atoms: _412  and  _415
REMARK  174  A    between atoms: _415  and  _416
REMARK  175  A    between atoms: _419  and  _421
REMARK  176  A    between atoms: _421  and  _422
REMARK  177  A    between atoms: _424  and  _426
REMARK  178  A    between atoms: _426  and  _427
REMARK  179  A    between atoms: _429  and  _431
REMARK  180  A    between atoms: _431  and  _432
REMARK  181  A    between atoms: _431  and  _434
REMARK  182  A    between atoms: _434  and  _435
REMARK  183  A    between atoms: _438  and  _440
REMARK  184  A    between atoms: _440  and  _441
REMARK  185  A    between atoms: _443  and  _445
REMARK  186  A    between atoms: _445  and  _446
REMARK  187  A    between atoms: _448  and  _450
REMARK  188  A    between atoms: _450  and  _451
REMARK  189  A    between atoms: _450  and  _453
REMARK  190  A    between atoms: _453  and  _454
REMARK  191  A    between atoms: _457  and  _459
REMARK  192  A    between atoms: _459  and  _460
REMARK  193  A    between atoms: _459  and  _462
REMARK  194  A    between atoms: _465  and  _467
REMARK  195  A    between atoms: _467  and  _468
REMARK  196  A    between atoms: _467  and  _470
REMARK  197  A    between atoms: _470  and  _471
REMARK  198  A    between atoms: _474  and  _476
REMARK  199  A    between atoms: _476  and  _477
REMARK  200  A    between atoms: _476  and  _479
REMARK  201  A    between atoms: _479  and  _480
REMARK  202  A    between atoms: _484  and  _485
REMARK  203  A    between atoms: _490  and  _492
REMARK  204  A    between atoms: _492  and  _493
REMARK  205  A    between atoms: _492  and  _495
REMARK  206  A    between atoms: _498  and  _500
REMARK  207  A    between atoms: _500  and  _501
REMARK  208  A    between atoms: _500  and  _503
REMARK  209  A    between atoms: _503  and  _504
REMARK  210  A    between atoms: _509  and  _511
REMARK  211  A    between atoms: _511  and  _512
REMARK  212  A    between atoms: _511  and  _514
REMARK  213  A    between atoms: _514  and  _515
REMARK  214  A    between atoms: _518  and  _520
REMARK  215  A    between atoms: _520  and  _521
REMARK  216  A    between atoms: _520  and  _523
REMARK  217  A    between atoms: _523  and  _524
REMARK  218  A    between atoms: _527  and  _529
REMARK  219  A    between atoms: _529  and  _530
REMARK  220  A    between atoms: _532  and  _534
REMARK  221  A    between atoms: _534  and  _535
REMARK  222  A    between atoms: _534  and  _537
REMARK  223  A    between atoms: _537  and  _538
REMARK  224  A    between atoms: _538  and  _539
REMARK  225  A    between atoms: _539  and  _540
REMARK  226  A    between atoms: _549  and  _551
REMARK  227  A    between atoms: _551  and  _552
REMARK  228  A    between atoms: _551  and  _554
REMARK  229  A    between atoms: _554  and  _555
REMARK                            x       y       z     vdW  Elec       q    Type
REMARK                         _______ _______ _______ _____ _____    ______ ____
ROOT
ATOM      1  C   ILE A   3      25.214  29.297   5.676  0.00  0.00    +0.241 C 
ATOM      2  N   GLY A   4      24.026  28.759   5.991  0.00  0.00    -0.295 N 
ATOM      3  H   GLY A   4      23.975  27.744   6.214  0.00  0.00    +0.150 HD
ATOM      4  O   ILE A   3      25.343  30.488   5.452  0.00  0.00    -0.273 OA
ENDROOT
BRANCH   2   5
ATOM      5  CA  GLY A   4      22.814  29.546   6.030  0.00  0.00    +0.176 C 
BRANCH   5   6
ATOM      6  C   GLY A   4      22.060  29.431   7.320  0.00  0.00    +0.243 C 
ATOM      7  O   GLY A   4      22.019  28.406   7.976  0.00  0.00    -0.273 OA
ATOM      8  N   GLY A   5      21.404  30.525   7.670  0.00  0.00    -0.295 N 
ATOM      9  H   GLY A   5      21.528  31.389   7.104  0.00  0.00    +0.150 HD
BRANCH   8  10
ATOM     10  CA  GLY A   5      20.511  30.558   8.826  0.00  0.00    +0.176 C 
BRANCH  10  11
ATOM     11  C   GLY A   5      19.415  31.575   8.559  0.00  0.00    +0.243 C 
ATOM     12  N   ILE A   6      18.840  32.137   9.613  0.00  0.00    -0.297 N 
ATOM     13  H   ILE A   6      19.098  31.832  10.573  0.00  0.00    +0.150 HD
ATOM     14  O   GLY A   5      19.083  31.873   7.396  0.00  0.00    -0.273 OA
BRANCH  12  15
ATOM     15  CA  ILE A   6      17.849  33.179   9.422  0.00  0.00    +0.149 C 
BRANCH  15  16
ATOM     16  C   ILE A   6      18.537  34.365   8.714  0.00  0.00    +0.241 C 
ATOM     17  O   ILE A   6      19.622  34.794   9.082  0.00  0.00    -0.273 OA
ATOM     18  N   GLY A   7      17.880  34.887   7.694  0.00  0.00    -0.295 N 
ATOM     19  H   GLY A   7      16.974  34.465   7.406  0.00  0.00    +0.150 HD
BRANCH  18  20
ATOM     20  CA  GLY A   7      18.387  36.032   6.965  0.00  0.00    +0.176 C 
BRANCH  20  21
ATOM     21  C   GLY A   7      19.214  35.676   5.751  0.00  0.00    +0.243 C 
ATOM     22  N   GLY A   8      19.653  34.442   5.613  0.00  0.00    -0.296 N 
ATOM     23  H   GLY A   8      19.449  33.747   6.359  0.00  0.00    +0.150 HD
ATOM     24  O   GLY A   7      19.420  36.557   4.932  0.00  0.00    -0.273 OA
BRANCH  22  25
ATOM     25  CA  GLY A   8      20.415  34.022   4.448  0.00  0.00    +0.163 C 
BRANCH  25  26
ATOM     26  C   GLY A   8      21.754  33.389   4.768  0.00  0.00    +0.229 C 
ATOM     27  O   GLY A   8      21.959  32.846   5.824  0.00  0.00    -0.286 OA
ENDBRANCH  25  26
ENDBRANCH  22  25
ENDBRANCH  20  21
ENDBRANCH  18  20
ENDBRANCH  15  16
BRANCH  15  28
ATOM     28  CB  ILE A   6      17.167  33.560  10.747  0.00  0.00    +0.027 C 
ATOM     29  CG2 ILE A   6      16.360  34.829  10.616  0.00  0.00    +0.002 C 
BRANCH  28  30
ATOM     30  CG1 ILE A   6      16.374  32.348  11.298  0.00  0.00    +0.002 C 
ATOM     31  CD1 ILE A   6      15.287  31.865  10.410  0.00  0.00    +0.000 C 
ENDBRANCH  28  30
ENDBRANCH  15  28
ENDBRANCH  12  15
ENDBRANCH  10  11
ENDBRANCH   8  10
ENDBRANCH   5   6
ENDBRANCH   2   5
BRANCH   1  32
ATOM     32  CA  ILE A   3      26.379  28.340   5.673  0.00  0.00    +0.149 C 
BRANCH  32  34
ATOM     33  C   MET A   2      27.874  28.064   3.761  0.00  0.00    +0.241 C 
ATOM     34  N   ILE A   3      27.339  28.828   4.683  0.00  0.00    -0.297 N 
ATOM     35  H   ILE A   3      27.611  29.831   4.712  0.00  0.00    +0.150 HD
ATOM     36  O   MET A   2      27.635  26.866   3.639  0.00  0.00    -0.273 OA
BRANCH  33  37
ATOM     37  CA  MET A   2      28.771  28.731   2.716  0.00  0.00    +0.149 C 
BRANCH  37  40
ATOM     38  C   LYS A   1      31.171  28.203   2.563  0.00  0.00    +0.238 C 
ATOM     39  O   LYS A   1      31.498  29.344   2.784  0.00  0.00    -0.274 OA
ATOM     40  N   MET A   2      29.901  27.864   2.406  0.00  0.00    -0.297 N 
ATOM     41  H   MET A   2      29.695  26.914   2.036  0.00  0.00    +0.150 HD
BRANCH  38  42
ATOM     42  CA  LYS A   1      32.204  27.067   2.417  0.00  0.00    +0.145 C 
BRANCH  42  43
ATOM     43  N   LYS A   1      33.468  27.675   2.143  0.00  0.00    -0.238 NA
ATOM     44  H   LYS A   1      33.649  28.613   2.554  0.00  0.00    +0.142 HD
ENDBRANCH  42  43
BRANCH  42  45
ATOM     45  CB  LYS A   1      32.240  26.256   3.713  0.00  0.00    +0.026 C 
BRANCH  45  46
ATOM     46  CG  LYS A   1      31.011  25.534   4.210  0.00  0.00    -0.000 C 
BRANCH  46  47
ATOM     47  CD  LYS A   1      31.232  24.689   5.438  0.00  0.00    -0.024 C 
BRANCH  47  48
ATOM     48  CE  LYS A   1      30.011  23.969   5.960  0.00  0.00    -0.086 C 
BRANCH  48  49
ATOM     49  NZ  LYS A   1      29.628  22.763   5.204  0.00  0.00    +0.380 N 
ATOM     50  HZ1 LYS A   1      28.782  22.339   5.636  0.00  0.00    -0.089 HD
ATOM     51  HZ2 LYS A   1      30.410  22.078   5.226  0.00  0.00    -0.089 HD
ATOM     52  HZ3 LYS A   1      29.422  23.024   4.219  0.00  0.00    -0.089 HD
ENDBRANCH  48  49
ENDBRANCH  47  48
ENDBRANCH  46  47
ENDBRANCH  45  46
ENDBRANCH  42  45
ENDBRANCH  38  42
ENDBRANCH  37  40
BRANCH  37  53
ATOM     53  CB  MET A   2      27.981  29.033   1.447  0.00  0.00    +0.041 C 
BRANCH  53  54
ATOM     54  CG  MET A   2      27.106  30.271   1.536  0.00  0.00    +0.060 C 
BRANCH  54  55
ATOM     55  SD  MET A   2      26.615  30.741  -0.102  0.00  0.00    -0.139 S 
ATOM     56  CE  MET A   2      25.194  29.719  -0.489  0.00  0.00    +0.069 C 
ENDBRANCH  54  55
ENDBRANCH  53  54
ENDBRANCH  37  53
ENDBRANCH  33  37
ENDBRANCH  32  34
BRANCH  32  57
ATOM     57  CB  ILE A   3      26.969  28.192   7.078  0.00  0.00    +0.027 C 
ATOM     58  CG2 ILE A   3      27.929  27.011   7.109  0.00  0.00    +0.002 C 
BRANCH  57  59
ATOM     59  CG1 ILE A   3      27.634  29.489   7.581  0.00  0.00    +0.002 C 
ATOM     60  CD1 ILE A   3      27.994  29.532   9.043  0.00  0.00    +0.000 C 
ENDBRANCH  57  59
ENDBRANCH  32  57
ENDBRANCH   1  32
TORSDOF 28
REMARK  Name = ../refined-set-2016/2avo/2avo_pocket.pdb
REMARK  229 active torsions:
REMARK  status: ('A' for Active; 'I' for Inactive)
REMARK    1  A    between atoms: _1  and  _3
REMARK    2  A    between atoms: _3  and  _4
REMARK    3  A    between atoms: _3  and  _6
REMARK    4  A    between atoms: _6  and  _7
REMARK    5  A    between atoms: _7  and  _8
REMARK    6  A    between atoms: _8  and  _9
REMARK    7  A    between atoms: _18  and  _20
REMARK    8  A    between atoms: _20  and  _21
REMARK    9  A    between atoms: _20  and  _23
REMARK   10  A    between atoms: _23  and  _24
REMARK   11  A    between atoms: _27  and  _29
REMARK   12  A    between atoms: _29  and  _30
REMARK   13  A    between atoms: _29  and  _32
REMARK   14  A    between atoms: _32  and  _33
REMARK   15  A    between atoms: _36  and  _38
REMARK   16  A    between atoms: _38  and  _39
REMARK   17  A    between atoms: _38  and  _41
REMARK   18  A    between atoms: _41  and  _42
REMARK   19  A    between atoms: _45  and  _47
REMARK   20  A    between atoms: _47  and  _48
REMARK   21  A    between atoms: _47  and  _50
REMARK   22  A    between atoms: _50  and  _51
REMARK   23  A    between atoms: _54  and  _56
REMARK   24  A    between atoms: _56  and  _57
REMARK   25  A    between atoms: _56  and  _59
REMARK   26  A    between atoms: _59  and  _60
REMARK   27  A    between atoms: _63  and  _65
REMARK   28  A    between atoms: _65  and  _66
REMARK   29  A    between atoms: _68  and  _70
REMARK   30  A    between atoms: _70  and  _71
REMARK   31  A    between atoms: _74  and  _76
REMARK   32  A    between atoms: _76  and  _77
REMARK   33  A    between atoms: _76  and  _79
REMARK   34  A    between atoms: _79  and  _80
REMARK   35  A    between atoms: _83  and  _85
REMARK   36  A    between atoms: _85  and  _86
REMARK   37  A    between atoms: _85  and  _88
REMARK   38  A    between atoms: _88  and  _89
REMARK   39  A    between atoms: _92  and  _94
REMARK   40  A    between atoms: _94  and  _95
REMARK   41  A    between atoms: _94  and  _97
REMARK   42  A    between atoms: _97  and  _98
REMARK   43  A    between atoms: _101  and  _103
REMARK   44  A    between atoms: _103  and  _104
REMARK   45  A    between atoms: _103  and  _106
REMARK   46  A    between atoms: _109  and  _111
REMARK   47  A    between atoms: _111  and  _112
REMARK   48  A    between atoms: _111  and  _114
REMARK   49  A    between atoms: _114  and  _115
REMARK   50  A    between atoms: _115  and  _116
REMARK   51  A    between atoms: _118  and  _120
REMARK   52  A    between atoms: _120  and  _121
REMARK   53  A    between atoms: _120  and  _123
REMARK   54  A    between atoms: _123  and  _124
REMARK   55  A    between atoms: _127  and  _129
REMARK   56  A    between atoms: _129  and  _130
REMARK   57  A    between atoms: _132  and  _134
REMARK   58  A    between atoms: _134  and  _135
REMARK   59  A    between atoms: _137  and  _139
REMARK   60  A    between atoms: _139  and  _140
REMARK   61  A    between atoms: _139  and  _142
REMARK   62  A    between atoms: _142  and  _143
REMARK   63  A    between atoms: _146  and  _148
REMARK   64  A    between atoms: _148  and  _149
REMARK   65  A    between atoms: _151  and  _153
REMARK   66  A    between atoms: _153  and  _154
REMARK   67  A    between atoms: _156  and  _158
REMARK   68  A    between atoms: _158  and  _159
REMARK   69  A    between atoms: _158  and  _161
REMARK   70  A    between atoms: _161  and  _162
REMARK   71  A    between atoms: _168  and  _170
REMARK   72  A    between atoms: _170  and  _171
REMARK   73  A    between atoms: _170  and  _173
REMARK   74  A    between atoms: _173  and  _174
REMARK   75  A    between atoms: _177  and  _179
REMARK   76  A    between atoms: _179  and  _180
REMARK   77  A    between atoms: _179  and  _182
REMARK   78  A    between atoms: _185  and  _187
REMARK   79  A    between atoms: _187  and  _188
REMARK   80  A    between atoms: _187  and  _190
REMARK   81  A    between atoms: _190  and  _191
REMARK   82  A    between atoms: _194  and  _196
REMARK   83  A    between atoms: _196  and  _197
REMARK   84  A    between atoms: _196  and  _199
REMARK   85  A    between atoms: _199  and  _200
REMARK   86  A    between atoms: _204  and  _205
REMARK   87  A    between atoms: _210  and  _212
REMARK   88  A    between atoms: _212  and  _213
REMARK   89  A    between atoms: _212  and  _215
REMARK   90  A    between atoms: _218  and  _220
REMARK   91  A    between atoms: _220  and  _221
REMARK   92  A    between atoms: _220  and  _223
REMARK   93  A    between atoms: _223  and  _224
REMARK   94  A    between atoms: _229  and  _231
REMARK   95  A    between atoms: _231  and  _232
REMARK   96  A    between atoms: _231  and  _234
REMARK   97  A    between atoms: _234  and  _235
REMARK   98  A    between atoms: _238  and  _240
REMARK   99  A    between atoms: _240  and  _241
REMARK  100  A    between atoms: _240  and  _243
REMARK  101  A    between atoms: _243  and  _244
REMARK  102  A    between atoms: _247  and  _249
REMARK  103  A    between atoms: _249  and  _250
REMARK  104  A    between atoms: _252  and  _254
REMARK  105  A    between atoms: _254  and  _255
REMARK  106  A    between atoms: _254  and  _257
REMARK  107  A    between atoms: _257  and  _258
REMARK  108  A    between atoms: _258  and  _259
REMARK  109  A    between atoms: _259  and  _260
REMARK  110  A    between atoms: _269  and  _271
REMARK  111  A    between atoms: _271  and  _272
REMARK  112  A    between atoms: _271  and  _274
REMARK  113  A    between atoms: _274  and  _275
REMARK  114  A    between atoms: _280  and  _282
REMARK  115  A    between atoms: _282  and  _283
REMARK  116  A    between atoms: _282  and  _285
REMARK  117  A    between atoms: _285  and  _286
REMARK  118  A    between atoms: _286  and  _287
REMARK  119  A    between atoms: _287  and  _288
REMARK  120  A    between atoms: _297  and  _299
REMARK  121  A    between atoms: _299  and  _300
REMARK  122  A    between atoms: _299  and  _302
REMARK  123  A    between atoms: _302  and  _303
REMARK  124  A    between atoms: _306  and  _308
REMARK  125  A    between atoms: _308  and  _309
REMARK  126  A    between atoms: _308  and  _311
REMARK  127  A    between atoms: _311  and  _312
REMARK  128  A    between atoms: _315  and  _317
REMARK  129  A    between atoms: _317  and  _318
REMARK  130  A    between atoms: _317  and  _320
REMARK  131  A    between atoms: _320  and  _321
REMARK  132  A    between atoms: _324  and  _326
REMARK  133  A    between atoms: _326  and  _327
REMARK  134  A    between atoms: _326  and  _329
REMARK  135  A    between atoms: _329  and  _330
REMARK  136  A    between atoms: _333  and  _335
REMARK  137  A    between atoms: _335  and  _336
REMARK  138  A    between atoms: _338  and  _340
REMARK  139  A    between atoms: _340  and  _341
REMARK  140  A    between atoms: _344  and  _346
REMARK  141  A    between atoms: _346  and  _347
REMARK  142  A    between atoms: _346  and  _349
REMARK  143  A    between atoms: _349  and  _350
REMARK  144  A    between atoms: _353  and  _355
REMARK  145  A    between atoms: _355  and  _356
REMARK  146  A    between atoms: _355  and  _358
REMARK  147  A    between atoms: _358  and  _359
REMARK  148  A    between atoms: _362  and  _364
REMARK  149  A    between atoms: _364  and  _365
REMARK  150  A    between atoms: _364  and  _367
REMARK  151  A    between atoms: _367  and  _368
REMARK  152  A    between atoms: _371  and  _373
REMARK  153  A    between atoms: _373  and  _374
REMARK  154  A    between atoms: _373  and  _376
REMARK  155  A    between atoms: _379  and  _381
REMARK  156  A    between atoms: _381  and  _382
REMARK  157  A    between atoms: _381  and  _384
REMARK  158  A    between atoms: _384  and  _385
REMARK  159  A    between atoms: _388  and  _390
REMARK  160  A    between atoms: _390  and  _391
REMARK  161  A    between atoms: _390  and  _393
REMARK  162  A    between atoms: _393  and  _394
REMARK  163  A    between atoms: _394  and  _395
REMARK  164  A    between atoms: _395  and  _396
REMARK  165  A    between atoms: _396  and  _397
REMARK  166  A    between atoms: _401  and  _403
REMARK  167  A    between atoms: _403  and  _404
REMARK  168  A    between atoms: _403  and  _406
REMARK  169  A    between atoms: _406  and  _407
REMARK  170  A    between atoms: _407  and  _408
REMARK  171  A    between atoms: _410  and  _412
REMARK  172  A    between atoms: _412  and  _413
REMARK  173  A    between atoms: _412  and  _415
REMARK  174  A    between atoms: _415  and  _416
REMARK  175  A    between atoms: _419  and  _421
REMARK  176  A    between atoms: _421  and  _422
REMARK  177  A    between atoms: _424  and  _426
REMARK  178  A    between atoms: _426  and  _427
REMARK  179  A    between atoms: _429  and  _431
REMARK  180  A    between atoms: _431  and  _432
REMARK  181  A    between atoms: _431  and  _434
REMARK  182  A    between atoms: _434  and  _435
REMARK  183  A    between atoms: _438  and  _440
REMARK  184  A    between atoms: _440  and  _441
REMARK  185  A    between atoms: _443  and  _445
REMARK  186  A    between atoms: _445  and  _446
REMARK  187  A    between atoms: _448  and  _450
REMARK  188  A    between atoms: _450  and  _451
REMARK  189  A    between atoms: _450  and  _453
REMARK  190  A    between atoms: _453  and  _454
REMARK  191  A    between atoms: _457  and  _459
REMARK  192  A    between atoms: _459  and  _460
REMARK  193  A    between atoms: _459  and  _462
REMARK  194  A    between atoms: _465  and  _467
REMARK  195  A    between atoms: _467  and  _468
REMARK  196  A    between atoms: _467  and  _470
REMARK  197  A    between atoms: _470  and  _471
REMARK  198  A    between atoms: _474  and  _476
REMARK  199  A    between atoms: _476  and  _477
REMARK  200  A    between atoms: _476  and  _479
REMARK  201  A    between atoms: _479  and  _480
REMARK  202  A    between atoms: _484  and  _485
REMARK  203  A    between atoms: _490  and  _492
REMARK  204  A    between atoms: _492  and  _493
REMARK  205  A    between atoms: _492  and  _495
REMARK  206  A    between atoms: _498  and  _500
REMARK  207  A    between atoms: _500  and  _501
REMARK  208  A    between atoms: _500  and  _503
REMARK  209  A    between atoms: _503  and  _504
REMARK  210  A    between atoms: _509  and  _511
REMARK  211  A    between atoms: _511  and  _512
REMARK  212  A    between atoms: _511  and  _514
REMARK  213  A    between atoms: _514  and  _515
REMARK  214  A    between atoms: _518  and  _520
REMARK  215  A    between atoms: _520  and  _521
REMARK  216  A    between atoms: _520  and  _523
REMARK  217  A    between atoms: _523  and  _524
REMARK  218  A    between atoms: _527  and  _529
REMARK  219  A    between atoms: _529  and  _530
REMARK  220  A    between atoms: _532  and  _534
REMARK  221  A    between atoms: _534  and  _535
REMARK  222  A    between atoms: _534  and  _537
REMARK  223  A    between atoms: _537  and  _538
REMARK  224  A    between atoms: _538  and  _539
REMARK  225  A    between atoms: _539  and  _540
REMARK  226  A    between atoms: _549  and  _551
REMARK  227  A    between atoms: _551  and  _552
REMARK  228  A    between atoms: _551  and  _554
REMARK  229  A    between atoms: _554  and  _555
REMARK                            x       y       z     vdW  Elec       q    Type
REMARK                         _______ _______ _______ _____ _____    ______ ____
ROOT
ATOM      1  CA  ILE A   1      27.444  33.841   4.745  0.00  0.00    +0.133 C 
ENDROOT
BRANCH   1   2
ATOM      2  N   ILE A   1      26.176  33.163   4.636  0.00  0.00    -0.239 NA
ATOM      3  H   ILE A   1      26.097  32.204   5.029  0.00  0.00    +0.142 HD
ENDBRANCH   1   2
BRANCH   1   4
ATOM      4  CB  ILE A   1      27.789  34.343   6.147  0.00  0.00    +0.023 C 
ATOM      5  CG2 ILE A   1      26.845  35.453   6.600  0.00  0.00    +0.002 C 
BRANCH   4   6
ATOM      6  CG1 ILE A   1      27.851  33.261   7.213  0.00  0.00    +0.002 C 
ATOM      7  CD1 ILE A   1      28.430  33.634   8.543  0.00  0.00    +0.000 C 
ENDBRANCH   4   6
ENDBRANCH   1   4
BRANCH   1   8
ATOM      8  C   ILE A   1      28.517  32.878   4.210  0.00  0.00    +0.224 C 
ATOM      9  O   ILE A   1      28.434  31.666   4.327  0.00  0.00    -0.287 OA
ENDBRANCH   1   8
TORSDOF 4
REMARK  Name = ../refined-set-2016/2avo/2avo_pocket.pdb
REMARK  229 active torsions:
REMARK  status: ('A' for Active; 'I' for Inactive)
REMARK    1  A    between atoms: _1  and  _3
REMARK    2  A    between atoms: _3  and  _4
REMARK    3  A    between atoms: _3  and  _6
REMARK    4  A    between atoms: _6  and  _7
REMARK    5  A    between atoms: _7  and  _8
REMARK    6  A    between atoms: _8  and  _9
REMARK    7  A    between atoms: _18  and  _20
REMARK    8  A    between atoms: _20  and  _21
REMARK    9  A    between atoms: _20  and  _23
REMARK   10  A    between atoms: _23  and  _24
REMARK   11  A    between atoms: _27  and  _29
REMARK   12  A    between atoms: _29  and  _30
REMARK   13  A    between atoms: _29  and  _32
REMARK   14  A    between atoms: _32  and  _33
REMARK   15  A    between atoms: _36  and  _38
REMARK   16  A    between atoms: _38  and  _39
REMARK   17  A    between atoms: _38  and  _41
REMARK   18  A    between atoms: _41  and  _42
REMARK   19  A    between atoms: _45  and  _47
REMARK   20  A    between atoms: _47  and  _48
REMARK   21  A    between atoms: _47  and  _50
REMARK   22  A    between atoms: _50  and  _51
REMARK   23  A    between atoms: _54  and  _56
REMARK   24  A    between atoms: _56  and  _57
REMARK   25  A    between atoms: _56  and  _59
REMARK   26  A    between atoms: _59  and  _60
REMARK   27  A    between atoms: _63  and  _65
REMARK   28  A    between atoms: _65  and  _66
REMARK   29  A    between atoms: _68  and  _70
REMARK   30  A    between atoms: _70  and  _71
REMARK   31  A    between atoms: _74  and  _76
REMARK   32  A    between atoms: _76  and  _77
REMARK   33  A    between atoms: _76  and  _79
REMARK   34  A    between atoms: _79  and  _80
REMARK   35  A    between atoms: _83  and  _85
REMARK   36  A    between atoms: _85  and  _86
REMARK   37  A    between atoms: _85  and  _88
REMARK   38  A    between atoms: _88  and  _89
REMARK   39  A    between atoms: _92  and  _94
REMARK   40  A    between atoms: _94  and  _95
REMARK   41  A    between atoms: _94  and  _97
REMARK   42  A    between atoms: _97  and  _98
REMARK   43  A    between atoms: _101  and  _103
REMARK   44  A    between atoms: _103  and  _104
REMARK   45  A    between atoms: _103  and  _106
REMARK   46  A    between atoms: _109  and  _111
REMARK   47  A    between atoms: _111  and  _112
REMARK   48  A    between atoms: _111  and  _114
REMARK   49  A    between atoms: _114  and  _115
REMARK   50  A    between atoms: _115  and  _116
REMARK   51  A    between atoms: _118  and  _120
REMARK   52  A    between atoms: _120  and  _121
REMARK   53  A    between atoms: _120  and  _123
REMARK   54  A    between atoms: _123  and  _124
REMARK   55  A    between atoms: _127  and  _129
REMARK   56  A    between atoms: _129  and  _130
REMARK   57  A    between atoms: _132  and  _134
REMARK   58  A    between atoms: _134  and  _135
REMARK   59  A    between atoms: _137  and  _139
REMARK   60  A    between atoms: _139  and  _140
REMARK   61  A    between atoms: _139  and  _142
REMARK   62  A    between atoms: _142  and  _143
REMARK   63  A    between atoms: _146  and  _148
REMARK   64  A    between atoms: _148  and  _149
REMARK   65  A    between atoms: _151  and  _153
REMARK   66  A    between atoms: _153  and  _154
REMARK   67  A    between atoms: _156  and  _158
REMARK   68  A    between atoms: _158  and  _159
REMARK   69  A    between atoms: _158  and  _161
REMARK   70  A    between atoms: _161  and  _162
REMARK   71  A    between atoms: _168  and  _170
REMARK   72  A    between atoms: _170  and  _171
REMARK   73  A    between atoms: _170  and  _173
REMARK   74  A    between atoms: _173  and  _174
REMARK   75  A    between atoms: _177  and  _179
REMARK   76  A    between atoms: _179  and  _180
REMARK   77  A    between atoms: _179  and  _182
REMARK   78  A    between atoms: _185  and  _187
REMARK   79  A    between atoms: _187  and  _188
REMARK   80  A    between atoms: _187  and  _190
REMARK   81  A    between atoms: _190  and  _191
REMARK   82  A    between atoms: _194  and  _196
REMARK   83  A    between atoms: _196  and  _197
REMARK   84  A    between atoms: _196  and  _199
REMARK   85  A    between atoms: _199  and  _200
REMARK   86  A    between atoms: _204  and  _205
REMARK   87  A    between atoms: _210  and  _212
REMARK   88  A    between atoms: _212  and  _213
REMARK   89  A    between atoms: _212  and  _215
REMARK   90  A    between atoms: _218  and  _220
REMARK   91  A    between atoms: _220  and  _221
REMARK   92  A    between atoms: _220  and  _223
REMARK   93  A    between atoms: _223  and  _224
REMARK   94  A    between atoms: _229  and  _231
REMARK   95  A    between atoms: _231  and  _232
REMARK   96  A    between atoms: _231  and  _234
REMARK   97  A    between atoms: _234  and  _235
REMARK   98  A    between atoms: _238  and  _240
REMARK   99  A    between atoms: _240  and  _241
REMARK  100  A    between atoms: _240  and  _243
REMARK  101  A    between atoms: _243  and  _244
REMARK  102  A    between atoms: _247  and  _249
REMARK  103  A    between atoms: _249  and  _250
REMARK  104  A    between atoms: _252  and  _254
REMARK  105  A    between atoms: _254  and  _255
REMARK  106  A    between atoms: _254  and  _257
REMARK  107  A    between atoms: _257  and  _258
REMARK  108  A    between atoms: _258  and  _259
REMARK  109  A    between atoms: _259  and  _260
REMARK  110  A    between atoms: _269  and  _271
REMARK  111  A    between atoms: _271  and  _272
REMARK  112  A    between atoms: _271  and  _274
REMARK  113  A    between atoms: _274  and  _275
REMARK  114  A    between atoms: _280  and  _282
REMARK  115  A    between atoms: _282  and  _283
REMARK  116  A    between atoms: _282  and  _285
REMARK  117  A    between atoms: _285  and  _286
REMARK  118  A    between atoms: _286  and  _287
REMARK  119  A    between atoms: _287  and  _288
REMARK  120  A    between atoms: _297  and  _299
REMARK  121  A    between atoms: _299  and  _300
REMARK  122  A    between atoms: _299  and  _302
REMARK  123  A    between atoms: _302  and  _303
REMARK  124  A    between atoms: _306  and  _308
REMARK  125  A    between atoms: _308  and  _309
REMARK  126  A    between atoms: _308  and  _311
REMARK  127  A    between atoms: _311  and  _312
REMARK  128  A    between atoms: _315  and  _317
REMARK  129  A    between atoms: _317  and  _318
REMARK  130  A    between atoms: _317  and  _320
REMARK  131  A    between atoms: _320  and  _321
REMARK  132  A    between atoms: _324  and  _326
REMARK  133  A    between atoms: _326  and  _327
REMARK  134  A    between atoms: _326  and  _329
REMARK  135  A    between atoms: _329  and  _330
REMARK  136  A    between atoms: _333  and  _335
REMARK  137  A    between atoms: _335  and  _336
REMARK  138  A    between atoms: _338  and  _340
REMARK  139  A    between atoms: _340  and  _341
REMARK  140  A    between atoms: _344  and  _346
REMARK  141  A    between atoms: _346  and  _347
REMARK  142  A    between atoms: _346  and  _349
REMARK  143  A    between atoms: _349  and  _350
REMARK  144  A    between atoms: _353  and  _355
REMARK  145  A    between atoms: _355  and  _356
REMARK  146  A    between atoms: _355  and  _358
REMARK  147  A    between atoms: _358  and  _359
REMARK  148  A    between atoms: _362  and  _364
REMARK  149  A    between atoms: _364  and  _365
REMARK  150  A    between atoms: _364  and  _367
REMARK  151  A    between atoms: _367  and  _368
REMARK  152  A    between atoms: _371  and  _373
REMARK  153  A    between atoms: _373  and  _374
REMARK  154  A    between atoms: _373  and  _376
REMARK  155  A    between atoms: _379  and  _381
REMARK  156  A    between atoms: _381  and  _382
REMARK  157  A    between atoms: _381  and  _384
REMARK  158  A    between atoms: _384  and  _385
REMARK  159  A    between atoms: _388  and  _390
REMARK  160  A    between atoms: _390  and  _391
REMARK  161  A    between atoms: _390  and  _393
REMARK  162  A    between atoms: _393  and  _394
REMARK  163  A    between atoms: _394  and  _395
REMARK  164  A    between atoms: _395  and  _396
REMARK  165  A    between atoms: _396  and  _397
REMARK  166  A    between atoms: _401  and  _403
REMARK  167  A    between atoms: _403  and  _404
REMARK  168  A    between atoms: _403  and  _406
REMARK  169  A    between atoms: _406  and  _407
REMARK  170  A    between atoms: _407  and  _408
REMARK  171  A    between atoms: _410  and  _412
REMARK  172  A    between atoms: _412  and  _413
REMARK  173  A    between atoms: _412  and  _415
REMARK  174  A    between atoms: _415  and  _416
REMARK  175  A    between atoms: _419  and  _421
REMARK  176  A    between atoms: _421  and  _422
REMARK  177  A    between atoms: _424  and  _426
REMARK  178  A    between atoms: _426  and  _427
REMARK  179  A    between atoms: _429  and  _431
REMARK  180  A    between atoms: _431  and  _432
REMARK  181  A    between atoms: _431  and  _434
REMARK  182  A    between atoms: _434  and  _435
REMARK  183  A    between atoms: _438  and  _440
REMARK  184  A    between atoms: _440  and  _441
REMARK  185  A    between atoms: _443  and  _445
REMARK  186  A    between atoms: _445  and  _446
REMARK  187  A    between atoms: _448  and  _450
REMARK  188  A    between atoms: _450  and  _451
REMARK  189  A    between atoms: _450  and  _453
REMARK  190  A    between atoms: _453  and  _454
REMARK  191  A    between atoms: _457  and  _459
REMARK  192  A    between atoms: _459  and  _460
REMARK  193  A    between atoms: _459  and  _462
REMARK  194  A    between atoms: _465  and  _467
REMARK  195  A    between atoms: _467  and  _468
REMARK  196  A    between atoms: _467  and  _470
REMARK  197  A    between atoms: _470  and  _471
REMARK  198  A    between atoms: _474  and  _476
REMARK  199  A    between atoms: _476  and  _477
REMARK  200  A    between atoms: _476  and  _479
REMARK  201  A    between atoms: _479  and  _480
REMARK  202  A    between atoms: _484  and  _485
REMARK  203  A    between atoms: _490  and  _492
REMARK  204  A    between atoms: _492  and  _493
REMARK  205  A    between atoms: _492  and  _495
REMARK  206  A    between atoms: _498  and  _500
REMARK  207  A    between atoms: _500  and  _501
REMARK  208  A    between atoms: _500  and  _503
REMARK  209  A    between atoms: _503  and  _504
REMARK  210  A    between atoms: _509  and  _511
REMARK  211  A    between atoms: _511  and  _512
REMARK  212  A    between atoms: _511  and  _514
REMARK  213  A    between atoms: _514  and  _515
REMARK  214  A    between atoms: _518  and  _520
REMARK  215  A    between atoms: _520  and  _521
REMARK  216  A    between atoms: _520  and  _523
REMARK  217  A    between atoms: _523  and  _524
REMARK  218  A    between atoms: _527  and  _529
REMARK  219  A    between atoms: _529  and  _530
REMARK  220  A    between atoms: _532  and  _534
REMARK  221  A    between atoms: _534  and  _535
REMARK  222  A    between atoms: _534  and  _537
REMARK  223  A    between atoms: _537  and  _538
REMARK  224  A    between atoms: _538  and  _539
REMARK  225  A    between atoms: _539  and  _540
REMARK  226  A    between atoms: _549  and  _551
REMARK  227  A    between atoms: _551  and  _552
REMARK  228  A    between atoms: _551  and  _554
REMARK  229  A    between atoms: _554  and  _555
REMARK                            x       y       z     vdW  Elec       q    Type
REMARK                         _______ _______ _______ _____ _____    ______ ____
ROOT
ATOM      1  CA  VAL A   1      33.189  31.223   5.619  0.00  0.00    +0.133 C 
ENDROOT
BRANCH   1   2
ATOM      2  CB  VAL A   1      32.481  30.430   6.736  0.00  0.00    +0.023 C 
ATOM      3  CG2 VAL A   1      31.305  31.240   7.289  0.00  0.00    +0.002 C 
ATOM      4  CG1 VAL A   1      31.988  29.067   6.260  0.00  0.00    +0.002 C 
ENDBRANCH   1   2
BRANCH   1   5
ATOM      5  N   VAL A   1      32.275  31.508   4.524  0.00  0.00    -0.239 NA
ATOM      6  H   VAL A   1      32.050  30.750   3.848  0.00  0.00    +0.142 HD
ENDBRANCH   1   5
BRANCH   1   7
ATOM      7  C   VAL A   1      34.374  30.448   5.121  0.00  0.00    +0.224 C 
ATOM      8  O   VAL A   1      34.347  29.842   4.026  0.00  0.00    -0.287 OA
ENDBRANCH   1   7
TORSDOF 3
REMARK  Name = ../refined-set-2016/2avo/2avo_pocket.pdb
REMARK  229 active torsions:
REMARK  status: ('A' for Active; 'I' for Inactive)
REMARK    1  A    between atoms: _1  and  _3
REMARK    2  A    between atoms: _3  and  _4
REMARK    3  A    between atoms: _3  and  _6
REMARK    4  A    between atoms: _6  and  _7
REMARK    5  A    between atoms: _7  and  _8
REMARK    6  A    between atoms: _8  and  _9
REMARK    7  A    between atoms: _18  and  _20
REMARK    8  A    between atoms: _20  and  _21
REMARK    9  A    between atoms: _20  and  _23
REMARK   10  A    between atoms: _23  and  _24
REMARK   11  A    between atoms: _27  and  _29
REMARK   12  A    between atoms: _29  and  _30
REMARK   13  A    between atoms: _29  and  _32
REMARK   14  A    between atoms: _32  and  _33
REMARK   15  A    between atoms: _36  and  _38
REMARK   16  A    between atoms: _38  and  _39
REMARK   17  A    between atoms: _38  and  _41
REMARK   18  A    between atoms: _41  and  _42
REMARK   19  A    between atoms: _45  and  _47
REMARK   20  A    between atoms: _47  and  _48
REMARK   21  A    between atoms: _47  and  _50
REMARK   22  A    between atoms: _50  and  _51
REMARK   23  A    between atoms: _54  and  _56
REMARK   24  A    between atoms: _56  and  _57
REMARK   25  A    between atoms: _56  and  _59
REMARK   26  A    between atoms: _59  and  _60
REMARK   27  A    between atoms: _63  and  _65
REMARK   28  A    between atoms: _65  and  _66
REMARK   29  A    between atoms: _68  and  _70
REMARK   30  A    between atoms: _70  and  _71
REMARK   31  A    between atoms: _74  and  _76
REMARK   32  A    between atoms: _76  and  _77
REMARK   33  A    between atoms: _76  and  _79
REMARK   34  A    between atoms: _79  and  _80
REMARK   35  A    between atoms: _83  and  _85
REMARK   36  A    between atoms: _85  and  _86
REMARK   37  A    between atoms: _85  and  _88
REMARK   38  A    between atoms: _88  and  _89
REMARK   39  A    between atoms: _92  and  _94
REMARK   40  A    between atoms: _94  and  _95
REMARK   41  A    between atoms: _94  and  _97
REMARK   42  A    between atoms: _97  and  _98
REMARK   43  A    between atoms: _101  and  _103
REMARK   44  A    between atoms: _103  and  _104
REMARK   45  A    between atoms: _103  and  _106
REMARK   46  A    between atoms: _109  and  _111
REMARK   47  A    between atoms: _111  and  _112
REMARK   48  A    between atoms: _111  and  _114
REMARK   49  A    between atoms: _114  and  _115
REMARK   50  A    between atoms: _115  and  _116
REMARK   51  A    between atoms: _118  and  _120
REMARK   52  A    between atoms: _120  and  _121
REMARK   53  A    between atoms: _120  and  _123
REMARK   54  A    between atoms: _123  and  _124
REMARK   55  A    between atoms: _127  and  _129
REMARK   56  A    between atoms: _129  and  _130
REMARK   57  A    between atoms: _132  and  _134
REMARK   58  A    between atoms: _134  and  _135
REMARK   59  A    between atoms: _137  and  _139
REMARK   60  A    between atoms: _139  and  _140
REMARK   61  A    between atoms: _139  and  _142
REMARK   62  A    between atoms: _142  and  _143
REMARK   63  A    between atoms: _146  and  _148
REMARK   64  A    between atoms: _148  and  _149
REMARK   65  A    between atoms: _151  and  _153
REMARK   66  A    between atoms: _153  and  _154
REMARK   67  A    between atoms: _156  and  _158
REMARK   68  A    between atoms: _158  and  _159
REMARK   69  A    between atoms: _158  and  _161
REMARK   70  A    between atoms: _161  and  _162
REMARK   71  A    between atoms: _168  and  _170
REMARK   72  A    between atoms: _170  and  _171
REMARK   73  A    between atoms: _170  and  _173
REMARK   74  A    between atoms: _173  and  _174
REMARK   75  A    between atoms: _177  and  _179
REMARK   76  A    between atoms: _179  and  _180
REMARK   77  A    between atoms: _179  and  _182
REMARK   78  A    between atoms: _185  and  _187
REMARK   79  A    between atoms: _187  and  _188
REMARK   80  A    between atoms: _187  and  _190
REMARK   81  A    between atoms: _190  and  _191
REMARK   82  A    between atoms: _194  and  _196
REMARK   83  A    between atoms: _196  and  _197
REMARK   84  A    between atoms: _196  and  _199
REMARK   85  A    between atoms: _199  and  _200
REMARK   86  A    between atoms: _204  and  _205
REMARK   87  A    between atoms: _210  and  _212
REMARK   88  A    between atoms: _212  and  _213
REMARK   89  A    between atoms: _212  and  _215
REMARK   90  A    between atoms: _218  and  _220
REMARK   91  A    between atoms: _220  and  _221
REMARK   92  A    between atoms: _220  and  _223
REMARK   93  A    between atoms: _223  and  _224
REMARK   94  A    between atoms: _229  and  _231
REMARK   95  A    between atoms: _231  and  _232
REMARK   96  A    between atoms: _231  and  _234
REMARK   97  A    between atoms: _234  and  _235
REMARK   98  A    between atoms: _238  and  _240
REMARK   99  A    between atoms: _240  and  _241
REMARK  100  A    between atoms: _240  and  _243
REMARK  101  A    between atoms: _243  and  _244
REMARK  102  A    between atoms: _247  and  _249
REMARK  103  A    between atoms: _249  and  _250
REMARK  104  A    between atoms: _252  and  _254
REMARK  105  A    between atoms: _254  and  _255
REMARK  106  A    between atoms: _254  and  _257
REMARK  107  A    between atoms: _257  and  _258
REMARK  108  A    between atoms: _258  and  _259
REMARK  109  A    between atoms: _259  and  _260
REMARK  110  A    between atoms: _269  and  _271
REMARK  111  A    between atoms: _271  and  _272
REMARK  112  A    between atoms: _271  and  _274
REMARK  113  A    between atoms: _274  and  _275
REMARK  114  A    between atoms: _280  and  _282
REMARK  115  A    between atoms: _282  and  _283
REMARK  116  A    between atoms: _282  and  _285
REMARK  117  A    between atoms: _285  and  _286
REMARK  118  A    between atoms: _286  and  _287
REMARK  119  A    between atoms: _287  and  _288
REMARK  120  A    between atoms: _297  and  _299
REMARK  121  A    between atoms: _299  and  _300
REMARK  122  A    between atoms: _299  and  _302
REMARK  123  A    between atoms: _302  and  _303
REMARK  124  A    between atoms: _306  and  _308
REMARK  125  A    between atoms: _308  and  _309
REMARK  126  A    between atoms: _308  and  _311
REMARK  127  A    between atoms: _311  and  _312
REMARK  128  A    between atoms: _315  and  _317
REMARK  129  A    between atoms: _317  and  _318
REMARK  130  A    between atoms: _317  and  _320
REMARK  131  A    between atoms: _320  and  _321
REMARK  132  A    between atoms: _324  and  _326
REMARK  133  A    between atoms: _326  and  _327
REMARK  134  A    between atoms: _326  and  _329
REMARK  135  A    between atoms: _329  and  _330
REMARK  136  A    between atoms: _333  and  _335
REMARK  137  A    between atoms: _335  and  _336
REMARK  138  A    between atoms: _338  and  _340
REMARK  139  A    between atoms: _340  and  _341
REMARK  140  A    between atoms: _344  and  _346
REMARK  141  A    between atoms: _346  and  _347
REMARK  142  A    between atoms: _346  and  _349
REMARK  143  A    between atoms: _349  and  _350
REMARK  144  A    between atoms: _353  and  _355
REMARK  145  A    between atoms: _355  and  _356
REMARK  146  A    between atoms: _355  and  _358
REMARK  147  A    between atoms: _358  and  _359
REMARK  148  A    between atoms: _362  and  _364
REMARK  149  A    between atoms: _364  and  _365
REMARK  150  A    between atoms: _364  and  _367
REMARK  151  A    between atoms: _367  and  _368
REMARK  152  A    between atoms: _371  and  _373
REMARK  153  A    between atoms: _373  and  _374
REMARK  154  A    between atoms: _373  and  _376
REMARK  155  A    between atoms: _379  and  _381
REMARK  156  A    between atoms: _381  and  _382
REMARK  157  A    between atoms: _381  and  _384
REMARK  158  A    between atoms: _384  and  _385
REMARK  159  A    between atoms: _388  and  _390
REMARK  160  A    between atoms: _390  and  _391
REMARK  161  A    between atoms: _390  and  _393
REMARK  162  A    between atoms: _393  and  _394
REMARK  163  A    between atoms: _394  and  _395
REMARK  164  A    between atoms: _395  and  _396
REMARK  165  A    between atoms: _396  and  _397
REMARK  166  A    between atoms: _401  and  _403
REMARK  167  A    between atoms: _403  and  _404
REMARK  168  A    between atoms: _403  and  _406
REMARK  169  A    between atoms: _406  and  _407
REMARK  170  A    between atoms: _407  and  _408
REMARK  171  A    between atoms: _410  and  _412
REMARK  172  A    between atoms: _412  and  _413
REMARK  173  A    between atoms: _412  and  _415
REMARK  174  A    between atoms: _415  and  _416
REMARK  175  A    between atoms: _419  and  _421
REMARK  176  A    between atoms: _421  and  _422
REMARK  177  A    between atoms: _424  and  _426
REMARK  178  A    between atoms: _426  and  _427
REMARK  179  A    between atoms: _429  and  _431
REMARK  180  A    between atoms: _431  and  _432
REMARK  181  A    between atoms: _431  and  _434
REMARK  182  A    between atoms: _434  and  _435
REMARK  183  A    between atoms: _438  and  _440
REMARK  184  A    between atoms: _440  and  _441
REMARK  185  A    between atoms: _443  and  _445
REMARK  186  A    between atoms: _445  and  _446
REMARK  187  A    between atoms: _448  and  _450
REMARK  188  A    between atoms: _450  and  _451
REMARK  189  A    between atoms: _450  and  _453
REMARK  190  A    between atoms: _453  and  _454
REMARK  191  A    between atoms: _457  and  _459
REMARK  192  A    between atoms: _459  and  _460
REMARK  193  A    between atoms: _459  and  _462
REMARK  194  A    between atoms: _465  and  _467
REMARK  195  A    between atoms: _467  and  _468
REMARK  196  A    between atoms: _467  and  _470
REMARK  197  A    between atoms: _470  and  _471
REMARK  198  A    between atoms: _474  and  _476
REMARK  199  A    between atoms: _476  and  _477
REMARK  200  A    between atoms: _476  and  _479
REMARK  201  A    between atoms: _479  and  _480
REMARK  202  A    between atoms: _484  and  _485
REMARK  203  A    between atoms: _490  and  _492
REMARK  204  A    between atoms: _492  and  _493
REMARK  205  A    between atoms: _492  and  _495
REMARK  206  A    between atoms: _498  and  _500
REMARK  207  A    between atoms: _500  and  _501
REMARK  208  A    between atoms: _500  and  _503
REMARK  209  A    between atoms: _503  and  _504
REMARK  210  A    between atoms: _509  and  _511
REMARK  211  A    between atoms: _511  and  _512
REMARK  212  A    between atoms: _511  and  _514
REMARK  213  A    between atoms: _514  and  _515
REMARK  214  A    between atoms: _518  and  _520
REMARK  215  A    between atoms: _520  and  _521
REMARK  216  A    between atoms: _520  and  _523
REMARK  217  A    between atoms: _523  and  _524
REMARK  218  A    between atoms: _527  and  _529
REMARK  219  A    between atoms: _529  and  _530
REMARK  220  A    between atoms: _532  and  _534
REMARK  221  A    between atoms: _534  and  _535
REMARK  222  A    between atoms: _534  and  _537
REMARK  223  A    between atoms: _537  and  _538
REMARK  224  A    between atoms: _538  and  _539
REMARK  225  A    between atoms: _539  and  _540
REMARK  226  A    between atoms: _549  and  _551
REMARK  227  A    between atoms: _551  and  _552
REMARK  228  A    between atoms: _551  and  _554
REMARK  229  A    between atoms: _554  and  _555
REMARK                            x       y       z     vdW  Elec       q    Type
REMARK                         _______ _______ _______ _____ _____    ______ ____
ROOT
ATOM      1  CA  LEU A   1      34.229  27.875  10.360  0.00  0.00    +0.133 C 
ENDROOT
BRANCH   1   2
ATOM      2  N   LEU A   1      34.460  26.967  11.465  0.00  0.00    -0.239 NA
ATOM      3  H   LEU A   1      33.714  26.875  12.184  0.00  0.00    +0.142 HD
ENDBRANCH   1   2
BRANCH   1   4
ATOM      4  C   LEU A   1      34.604  29.290  10.841  0.00  0.00    +0.224 C 
ATOM      5  O   LEU A   1      34.330  29.613  12.006  0.00  0.00    -0.287 OA
ENDBRANCH   1   4
BRANCH   1   6
ATOM      6  CB  LEU A   1      32.788  27.826   9.899  0.00  0.00    +0.025 C 
BRANCH   6   7
ATOM      7  CG  LEU A   1      32.229  26.400   9.668  0.00  0.00    +0.002 C 
ATOM      8  CD2 LEU A   1      30.763  26.495   9.307  0.00  0.00    +0.000 C 
ATOM      9  CD1 LEU A   1      33.060  25.674   8.602  0.00  0.00    +0.000 C 
ENDBRANCH   6   7
ENDBRANCH   1   6
TORSDOF 4
REMARK  Name = ../refined-set-2016/2avo/2avo_pocket.pdb
REMARK  229 active torsions:
REMARK  status: ('A' for Active; 'I' for Inactive)
REMARK    1  A    between atoms: _1  and  _3
REMARK    2  A    between atoms: _3  and  _4
REMARK    3  A    between atoms: _3  and  _6
REMARK    4  A    between atoms: _6  and  _7
REMARK    5  A    between atoms: _7  and  _8
REMARK    6  A    between atoms: _8  and  _9
REMARK    7  A    between atoms: _18  and  _20
REMARK    8  A    between atoms: _20  and  _21
REMARK    9  A    between atoms: _20  and  _23
REMARK   10  A    between atoms: _23  and  _24
REMARK   11  A    between atoms: _27  and  _29
REMARK   12  A    between atoms: _29  and  _30
REMARK   13  A    between atoms: _29  and  _32
REMARK   14  A    between atoms: _32  and  _33
REMARK   15  A    between atoms: _36  and  _38
REMARK   16  A    between atoms: _38  and  _39
REMARK   17  A    between atoms: _38  and  _41
REMARK   18  A    between atoms: _41  and  _42
REMARK   19  A    between atoms: _45  and  _47
REMARK   20  A    between atoms: _47  and  _48
REMARK   21  A    between atoms: _47  and  _50
REMARK   22  A    between atoms: _50  and  _51
REMARK   23  A    between atoms: _54  and  _56
REMARK   24  A    between atoms: _56  and  _57
REMARK   25  A    between atoms: _56  and  _59
REMARK   26  A    between atoms: _59  and  _60
REMARK   27  A    between atoms: _63  and  _65
REMARK   28  A    between atoms: _65  and  _66
REMARK   29  A    between atoms: _68  and  _70
REMARK   30  A    between atoms: _70  and  _71
REMARK   31  A    between atoms: _74  and  _76
REMARK   32  A    between atoms: _76  and  _77
REMARK   33  A    between atoms: _76  and  _79
REMARK   34  A    between atoms: _79  and  _80
REMARK   35  A    between atoms: _83  and  _85
REMARK   36  A    between atoms: _85  and  _86
REMARK   37  A    between atoms: _85  and  _88
REMARK   38  A    between atoms: _88  and  _89
REMARK   39  A    between atoms: _92  and  _94
REMARK   40  A    between atoms: _94  and  _95
REMARK   41  A    between atoms: _94  and  _97
REMARK   42  A    between atoms: _97  and  _98
REMARK   43  A    between atoms: _101  and  _103
REMARK   44  A    between atoms: _103  and  _104
REMARK   45  A    between atoms: _103  and  _106
REMARK   46  A    between atoms: _109  and  _111
REMARK   47  A    between atoms: _111  and  _112
REMARK   48  A    between atoms: _111  and  _114
REMARK   49  A    between atoms: _114  and  _115
REMARK   50  A    between atoms: _115  and  _116
REMARK   51  A    between atoms: _118  and  _120
REMARK   52  A    between atoms: _120  and  _121
REMARK   53  A    between atoms: _120  and  _123
REMARK   54  A    between atoms: _123  and  _124
REMARK   55  A    between atoms: _127  and  _129
REMARK   56  A    between atoms: _129  and  _130
REMARK   57  A    between atoms: _132  and  _134
REMARK   58  A    between atoms: _134  and  _135
REMARK   59  A    between atoms: _137  and  _139
REMARK   60  A    between atoms: _139  and  _140
REMARK   61  A    between atoms: _139  and  _142
REMARK   62  A    between atoms: _142  and  _143
REMARK   63  A    between atoms: _146  and  _148
REMARK   64  A    between atoms: _148  and  _149
REMARK   65  A    between atoms: _151  and  _153
REMARK   66  A    between atoms: _153  and  _154
REMARK   67  A    between atoms: _156  and  _158
REMARK   68  A    between atoms: _158  and  _159
REMARK   69  A    between atoms: _158  and  _161
REMARK   70  A    between atoms: _161  and  _162
REMARK   71  A    between atoms: _168  and  _170
REMARK   72  A    between atoms: _170  and  _171
REMARK   73  A    between atoms: _170  and  _173
REMARK   74  A    between atoms: _173  and  _174
REMARK   75  A    between atoms: _177  and  _179
REMARK   76  A    between atoms: _179  and  _180
REMARK   77  A    between atoms: _179  and  _182
REMARK   78  A    between atoms: _185  and  _187
REMARK   79  A    between atoms: _187  and  _188
REMARK   80  A    between atoms: _187  and  _190
REMARK   81  A    between atoms: _190  and  _191
REMARK   82  A    between atoms: _194  and  _196
REMARK   83  A    between atoms: _196  and  _197
REMARK   84  A    between atoms: _196  and  _199
REMARK   85  A    between atoms: _199  and  _200
REMARK   86  A    between atoms: _204  and  _205
REMARK   87  A    between atoms: _210  and  _212
REMARK   88  A    between atoms: _212  and  _213
REMARK   89  A    between atoms: _212  and  _215
REMARK   90  A    between atoms: _218  and  _220
REMARK   91  A    between atoms: _220  and  _221
REMARK   92  A    between atoms: _220  and  _223
REMARK   93  A    between atoms: _223  and  _224
REMARK   94  A    between atoms: _229  and  _231
REMARK   95  A    between atoms: _231  and  _232
REMARK   96  A    between atoms: _231  and  _234
REMARK   97  A    between atoms: _234  and  _235
REMARK   98  A    between atoms: _238  and  _240
REMARK   99  A    between atoms: _240  and  _241
REMARK  100  A    between atoms: _240  and  _243
REMARK  101  A    between atoms: _243  and  _244
REMARK  102  A    between atoms: _247  and  _249
REMARK  103  A    between atoms: _249  and  _250
REMARK  104  A    between atoms: _252  and  _254
REMARK  105  A    between atoms: _254  and  _255
REMARK  106  A    between atoms: _254  and  _257
REMARK  107  A    between atoms: _257  and  _258
REMARK  108  A    between atoms: _258  and  _259
REMARK  109  A    between atoms: _259  and  _260
REMARK  110  A    between atoms: _269  and  _271
REMARK  111  A    between atoms: _271  and  _272
REMARK  112  A    between atoms: _271  and  _274
REMARK  113  A    between atoms: _274  and  _275
REMARK  114  A    between atoms: _280  and  _282
REMARK  115  A    between atoms: _282  and  _283
REMARK  116  A    between atoms: _282  and  _285
REMARK  117  A    between atoms: _285  and  _286
REMARK  118  A    between atoms: _286  and  _287
REMARK  119  A    between atoms: _287  and  _288
REMARK  120  A    between atoms: _297  and  _299
REMARK  121  A    between atoms: _299  and  _300
REMARK  122  A    between atoms: _299  and  _302
REMARK  123  A    between atoms: _302  and  _303
REMARK  124  A    between atoms: _306  and  _308
REMARK  125  A    between atoms: _308  and  _309
REMARK  126  A    between atoms: _308  and  _311
REMARK  127  A    between atoms: _311  and  _312
REMARK  128  A    between atoms: _315  and  _317
REMARK  129  A    between atoms: _317  and  _318
REMARK  130  A    between atoms: _317  and  _320
REMARK  131  A    between atoms: _320  and  _321
REMARK  132  A    between atoms: _324  and  _326
REMARK  133  A    between atoms: _326  and  _327
REMARK  134  A    between atoms: _326  and  _329
REMARK  135  A    between atoms: _329  and  _330
REMARK  136  A    between atoms: _333  and  _335
REMARK  137  A    between atoms: _335  and  _336
REMARK  138  A    between atoms: _338  and  _340
REMARK  139  A    between atoms: _340  and  _341
REMARK  140  A    between atoms: _344  and  _346
REMARK  141  A    between atoms: _346  and  _347
REMARK  142  A    between atoms: _346  and  _349
REMARK  143  A    between atoms: _349  and  _350
REMARK  144  A    between atoms: _353  and  _355
REMARK  145  A    between atoms: _355  and  _356
REMARK  146  A    between atoms: _355  and  _358
REMARK  147  A    between atoms: _358  and  _359
REMARK  148  A    between atoms: _362  and  _364
REMARK  149  A    between atoms: _364  and  _365
REMARK  150  A    between atoms: _364  and  _367
REMARK  151  A    between atoms: _367  and  _368
REMARK  152  A    between atoms: _371  and  _373
REMARK  153  A    between atoms: _373  and  _374
REMARK  154  A    between atoms: _373  and  _376
REMARK  155  A    between atoms: _379  and  _381
REMARK  156  A    between atoms: _381  and  _382
REMARK  157  A    between atoms: _381  and  _384
REMARK  158  A    between atoms: _384  and  _385
REMARK  159  A    between atoms: _388  and  _390
REMARK  160  A    between atoms: _390  and  _391
REMARK  161  A    between atoms: _390  and  _393
REMARK  162  A    between atoms: _393  and  _394
REMARK  163  A    between atoms: _394  and  _395
REMARK  164  A    between atoms: _395  and  _396
REMARK  165  A    between atoms: _396  and  _397
REMARK  166  A    between atoms: _401  and  _403
REMARK  167  A    between atoms: _403  and  _404
REMARK  168  A    between atoms: _403  and  _406
REMARK  169  A    between atoms: _406  and  _407
REMARK  170  A    between atoms: _407  and  _408
REMARK  171  A    between atoms: _410  and  _412
REMARK  172  A    between atoms: _412  and  _413
REMARK  173  A    between atoms: _412  and  _415
REMARK  174  A    between atoms: _415  and  _416
REMARK  175  A    between atoms: _419  and  _421
REMARK  176  A    between atoms: _421  and  _422
REMARK  177  A    between atoms: _424  and  _426
REMARK  178  A    between atoms: _426  and  _427
REMARK  179  A    between atoms: _429  and  _431
REMARK  180  A    between atoms: _431  and  _432
REMARK  181  A    between atoms: _431  and  _434
REMARK  182  A    between atoms: _434  and  _435
REMARK  183  A    between atoms: _438  and  _440
REMARK  184  A    between atoms: _440  and  _441
REMARK  185  A    between atoms: _443  and  _445
REMARK  186  A    between atoms: _445  and  _446
REMARK  187  A    between atoms: _448  and  _450
REMARK  188  A    between atoms: _450  and  _451
REMARK  189  A    between atoms: _450  and  _453
REMARK  190  A    between atoms: _453  and  _454
REMARK  191  A    between atoms: _457  and  _459
REMARK  192  A    between atoms: _459  and  _460
REMARK  193  A    between atoms: _459  and  _462
REMARK  194  A    between atoms: _465  and  _467
REMARK  195  A    between atoms: _467  and  _468
REMARK  196  A    between atoms: _467  and  _470
REMARK  197  A    between atoms: _470  and  _471
REMARK  198  A    between atoms: _474  and  _476
REMARK  199  A    between atoms: _476  and  _477
REMARK  200  A    between atoms: _476  and  _479
REMARK  201  A    between atoms: _479  and  _480
REMARK  202  A    between atoms: _484  and  _485
REMARK  203  A    between atoms: _490  and  _492
REMARK  204  A    between atoms: _492  and  _493
REMARK  205  A    between atoms: _492  and  _495
REMARK  206  A    between atoms: _498  and  _500
REMARK  207  A    between atoms: _500  and  _501
REMARK  208  A    between atoms: _500  and  _503
REMARK  209  A    between atoms: _503  and  _504
REMARK  210  A    between atoms: _509  and  _511
REMARK  211  A    between atoms: _511  and  _512
REMARK  212  A    between atoms: _511  and  _514
REMARK  213  A    between atoms: _514  and  _515
REMARK  214  A    between atoms: _518  and  _520
REMARK  215  A    between atoms: _520  and  _521
REMARK  216  A    between atoms: _520  and  _523
REMARK  217  A    between atoms: _523  and  _524
REMARK  218  A    between atoms: _527  and  _529
REMARK  219  A    between atoms: _529  and  _530
REMARK  220  A    between atoms: _532  and  _534
REMARK  221  A    between atoms: _534  and  _535
REMARK  222  A    between atoms: _534  and  _537
REMARK  223  A    between atoms: _537  and  _538
REMARK  224  A    between atoms: _538  and  _539
REMARK  225  A    between atoms: _539  and  _540
REMARK  226  A    between atoms: _549  and  _551
REMARK  227  A    between atoms: _551  and  _552
REMARK  228  A    between atoms: _551  and  _554
REMARK  229  A    between atoms: _554  and  _555
REMARK                            x       y       z     vdW  Elec       q    Type
REMARK                         _______ _______ _______ _____ _____    ______ ____
ROOT
ATOM      1  C   ILE A   5      29.491  28.960  18.004  0.00  0.00    +0.241 C 
ATOM      2  N   ILE A   6      29.228  28.272  19.110  0.00  0.00    -0.297 N 
ATOM      3  H   ILE A   6      28.737  28.756  19.888  0.00  0.00    +0.150 HD
ATOM      4  O   ILE A   5      30.219  28.543  17.096  0.00  0.00    -0.273 OA
ENDROOT
BRANCH   2   5
ATOM      5  CA  ILE A   6      29.597  26.858  19.288  0.00  0.00    +0.149 C 
BRANCH   5   6
ATOM      6  C   ILE A   6      28.367  26.022  18.979  0.00  0.00    +0.241 C 
ATOM      7  O   ILE A   6      27.353  26.088  19.677  0.00  0.00    -0.273 OA
ATOM      8  N   GLY A   7      28.438  25.246  17.884  0.00  0.00    -0.295 N 
ATOM      9  H   GLY A   7      29.324  25.226  17.340  0.00  0.00    +0.150 HD
BRANCH   8  10
ATOM     10  CA  GLY A   7      27.340  24.448  17.441  0.00  0.00    +0.176 C 
BRANCH  10  11
ATOM     11  C   GLY A   7      27.495  22.992  17.734  0.00  0.00    +0.243 C 
ATOM     12  O   GLY A   7      28.418  22.545  18.443  0.00  0.00    -0.273 OA
ATOM     13  N   ARG A   8      26.539  22.183  17.235  0.00  0.00    -0.297 N 
ATOM     14  H   ARG A   8      25.880  22.550  16.519  0.00  0.00    +0.150 HD
BRANCH  13  15
ATOM     15  CA  ARG A   8      26.414  20.808  17.681  0.00  0.00    +0.149 C 
BRANCH  15  16
ATOM     16  C   ARG A   8      27.617  19.963  17.377  0.00  0.00    +0.241 C 
ATOM     17  O   ARG A   8      27.897  19.012  18.111  0.00  0.00    -0.273 OA
ATOM     18  N   ASN A   9      28.334  20.262  16.298  0.00  0.00    -0.298 N 
ATOM     19  H   ASN A   9      28.067  21.060  15.687  0.00  0.00    +0.150 HD
BRANCH  18  20
ATOM     20  CA  ASN A   9      29.511  19.442  15.987  0.00  0.00    +0.146 C 
BRANCH  20  21
ATOM     21  C   ASN A   9      30.521  19.408  17.105  0.00  0.00    +0.227 C 
ATOM     22  O   ASN A   9      31.168  18.369  17.307  0.00  0.00    -0.286 OA
ENDBRANCH  20  21
BRANCH  20  23
ATOM     23  CB  ASN A   9      30.152  19.915  14.662  0.00  0.00    +0.112 C 
BRANCH  23  24
ATOM     24  CG  ASN A   9      30.889  21.210  14.810  0.00  0.00    +0.222 C 
ATOM     25  OD1 ASN A   9      30.317  22.207  15.232  0.00  0.00    -0.275 OA
ATOM     26  ND2 ASN A   9      32.174  21.190  14.440  0.00  0.00    -0.329 N 
ATOM     27 HD21 ASN A   9      32.747  22.056  14.503  0.00  0.00    +0.145 HD
ATOM     28 HD22 ASN A   9      32.601  20.309  14.089  0.00  0.00    +0.145 HD
ENDBRANCH  23  24
ENDBRANCH  20  23
ENDBRANCH  18  20
ENDBRANCH  15  16
BRANCH  15  29
ATOM     29  CB  ARG A   8      25.159  20.161  17.085  0.00  0.00    +0.033 C 
BRANCH  29  30
ATOM     30  CG  ARG A   8      23.850  20.775  17.595  0.00  0.00    +0.045 C 
BRANCH  30  31
ATOM     31  CD  ARG A   8      22.638  19.973  17.188  0.00  0.00    +0.174 C 
BRANCH  31  32
ATOM     32  NE  ARG A   8      22.463  19.945  15.756  0.00  0.00    -0.265 N 
ATOM     33  HE  ARG A   8      21.978  20.763  15.335  0.00  0.00    +0.259 HD
ATOM     34  CZ  ARG A   8      22.849  18.999  14.918  0.00  0.00    +0.342 C 
ATOM     35  NH2 ARG A   8      23.395  17.875  15.328  0.00  0.00    -0.292 N 
ATOM     36 HH21 ARG A   8      23.536  17.706  16.344  0.00  0.00    +0.255 HD
ATOM     37 HH22 ARG A   8      23.685  17.155  14.636  0.00  0.00    +0.255 HD
ATOM     38  NH1 ARG A   8      22.669  19.194  13.613  0.00  0.00    -0.292 N 
ATOM     39 HH11 ARG A   8      22.233  20.075  13.274  0.00  0.00    +0.255 HD
ATOM     40 HH12 ARG A   8      22.964  18.465  12.933  0.00  0.00    +0.255 HD
ENDBRANCH  31  32
ENDBRANCH  30  31
ENDBRANCH  29  30
ENDBRANCH  15  29
ENDBRANCH  13  15
ENDBRANCH  10  11
ENDBRANCH   8  10
ENDBRANCH   5   6
BRANCH   5  41
ATOM     41  CB  ILE A   6      30.125  26.548  20.694  0.00  0.00    +0.027 C 
ATOM     42  CG2 ILE A   6      30.604  25.123  20.749  0.00  0.00    +0.002 C 
BRANCH  41  43
ATOM     43  CG1 ILE A   6      31.211  27.546  21.147  0.00  0.00    +0.002 C 
ATOM     44  CD1 ILE A   6      32.381  27.618  20.183  0.00  0.00    +0.000 C 
ENDBRANCH  41  43
ENDBRANCH   5  41
ENDBRANCH   2   5
BRANCH   1  45
ATOM     45  CA  ILE A   5      28.838  30.308  17.883  0.00  0.00    +0.149 C 
BRANCH  45  48
ATOM     46  C   ASN A   4      29.934  32.462  18.379  0.00  0.00    +0.241 C 
ATOM     47  O   ASN A   4      29.276  32.657  19.428  0.00  0.00    -0.273 OA
ATOM     48  N   ILE A   5      29.821  31.359  17.639  0.00  0.00    -0.297 N 
ATOM     49  H   ILE A   5      30.474  31.240  16.838  0.00  0.00    +0.150 HD
BRANCH  46  50
ATOM     50  CA  ASN A   4      30.908  33.522  17.915  0.00  0.00    +0.158 C 
BRANCH  50  52
ATOM     51  C   VAL A   3      29.283  35.102  17.045  0.00  0.00    +0.241 C 
ATOM     52  N   ASN A   4      30.230  34.815  17.927  0.00  0.00    -0.297 N 
ATOM     53  H   ASN A   4      30.495  35.524  18.641  0.00  0.00    +0.150 HD
ATOM     54  O   VAL A   3      28.973  34.319  16.145  0.00  0.00    -0.273 OA
BRANCH  51  55
ATOM     55  CA  VAL A   3      28.501  36.411  17.249  0.00  0.00    +0.149 C 
BRANCH  55  58
ATOM     56  C   PRO A   2      27.907  38.077  15.547  0.00  0.00    +0.241 C 
ATOM     57  O   PRO A   2      28.125  39.048  16.290  0.00  0.00    -0.273 OA
ATOM     58  N   VAL A   3      28.030  36.828  15.948  0.00  0.00    -0.297 N 
ATOM     59  H   VAL A   3      27.767  36.082  15.273  0.00  0.00    +0.150 HD
BRANCH  56  63
ATOM     60  C   THR A   1      28.861  36.962  12.840  0.00  0.00    +0.244 C 
ATOM     61  O   THR A   1      29.808  37.624  13.273  0.00  0.00    -0.273 OA
ATOM     62  N   PRO A   2      27.613  37.240  13.219  0.00  0.00    -0.272 N 
ATOM     63  CA  PRO A   2      27.371  38.335  14.154  0.00  0.00    +0.152 C 
ATOM     64  CB  PRO A   2      25.842  38.462  14.171  0.00  0.00    +0.031 C 
ATOM     65  CG  PRO A   2      25.362  37.814  12.905  0.00  0.00    +0.024 C 
ATOM     66  CD  PRO A   2      26.338  36.709  12.658  0.00  0.00    +0.094 C 
BRANCH  60  67
ATOM     67  CA  THR A   1      29.095  35.814  11.873  0.00  0.00    +0.172 C 
BRANCH  67  68
ATOM     68  CB  THR A   1      29.371  34.519  12.623  0.00  0.00    +0.135 C 
ATOM     69  CG2 THR A   1      30.647  34.491  13.415  0.00  0.00    +0.034 C 
BRANCH  68  70
ATOM     70  OG1 THR A   1      28.248  34.274  13.472  0.00  0.00    -0.383 OA
ATOM     71  HG1 THR A   1      28.144  35.028  14.105  0.00  0.00    +0.210 HD
ENDBRANCH  68  70
ENDBRANCH  67  68
BRANCH  67  72
ATOM     72  N   THR A   1      30.226  36.127  10.993  0.00  0.00    -0.236 NA
ATOM     73  H   THR A   1      31.130  35.636  11.145  0.00  0.00    +0.142 HD
ENDBRANCH  67  72
ENDBRANCH  60  67
ENDBRANCH  56  63
ENDBRANCH  55  58
BRANCH  55  74
ATOM     74  CB  VAL A   3      27.341  36.300  18.236  0.00  0.00    +0.027 C 
ATOM     75  CG2 VAL A   3      27.821  35.933  19.631  0.00  0.00    +0.002 C 
ATOM     76  CG1 VAL A   3      26.315  35.302  17.742  0.00  0.00    +0.002 C 
ENDBRANCH  55  74
ENDBRANCH  51  55
ENDBRANCH  50  52
BRANCH  50  77
ATOM     77  CB  ASN A   4      32.126  33.545  18.836  0.00  0.00    +0.114 C 
BRANCH  77  78
ATOM     78  CG  ASN A   4      33.182  34.523  18.388  0.00  0.00    +0.222 C 
ATOM     79  ND2 ASN A   4      33.856  35.150  19.333  0.00  0.00    -0.329 N 
ATOM     80 HD21 ASN A   4      33.659  34.947  20.334  0.00  0.00    +0.145 HD
ATOM     81 HD22 ASN A   4      34.584  35.847  19.077  0.00  0.00    +0.145 HD
ATOM     82  OD1 ASN A   4      33.382  34.732  17.186  0.00  0.00    -0.275 OA
ENDBRANCH  77  78
ENDBRANCH  50  77
ENDBRANCH  46  50
ENDBRANCH  45  48
BRANCH  45  83
ATOM     83  CB  ILE A   5      27.848  30.255  16.687  0.00  0.00    +0.027 C 
ATOM     84  CG2 ILE A   5      27.027  28.990  16.708  0.00  0.00    +0.002 C 
BRANCH  83  85
ATOM     85  CG1 ILE A   5      27.031  31.562  16.609  0.00  0.00    +0.002 C 
ATOM     86  CD1 ILE A   5      26.261  31.698  15.341  0.00  0.00    +0.000 C 
ENDBRANCH  83  85
ENDBRANCH  45  83
ENDBRANCH   1  45
TORSDOF 32
REMARK  Name = ../refined-set-2016/2avo/2avo_pocket.pdb
REMARK  229 active torsions:
REMARK  status: ('A' for Active; 'I' for Inactive)
REMARK    1  A    between atoms: _1  and  _3
REMARK    2  A    between atoms: _3  and  _4
REMARK    3  A    between atoms: _3  and  _6
REMARK    4  A    between atoms: _6  and  _7
REMARK    5  A    between atoms: _7  and  _8
REMARK    6  A    between atoms: _8  and  _9
REMARK    7  A    between atoms: _18  and  _20
REMARK    8  A    between atoms: _20  and  _21
REMARK    9  A    between atoms: _20  and  _23
REMARK   10  A    between atoms: _23  and  _24
REMARK   11  A    between atoms: _27  and  _29
REMARK   12  A    between atoms: _29  and  _30
REMARK   13  A    between atoms: _29  and  _32
REMARK   14  A    between atoms: _32  and  _33
REMARK   15  A    between atoms: _36  and  _38
REMARK   16  A    between atoms: _38  and  _39
REMARK   17  A    between atoms: _38  and  _41
REMARK   18  A    between atoms: _41  and  _42
REMARK   19  A    between atoms: _45  and  _47
REMARK   20  A    between atoms: _47  and  _48
REMARK   21  A    between atoms: _47  and  _50
REMARK   22  A    between atoms: _50  and  _51
REMARK   23  A    between atoms: _54  and  _56
REMARK   24  A    between atoms: _56  and  _57
REMARK   25  A    between atoms: _56  and  _59
REMARK   26  A    between atoms: _59  and  _60
REMARK   27  A    between atoms: _63  and  _65
REMARK   28  A    between atoms: _65  and  _66
REMARK   29  A    between atoms: _68  and  _70
REMARK   30  A    between atoms: _70  and  _71
REMARK   31  A    between atoms: _74  and  _76
REMARK   32  A    between atoms: _76  and  _77
REMARK   33  A    between atoms: _76  and  _79
REMARK   34  A    between atoms: _79  and  _80
REMARK   35  A    between atoms: _83  and  _85
REMARK   36  A    between atoms: _85  and  _86
REMARK   37  A    between atoms: _85  and  _88
REMARK   38  A    between atoms: _88  and  _89
REMARK   39  A    between atoms: _92  and  _94
REMARK   40  A    between atoms: _94  and  _95
REMARK   41  A    between atoms: _94  and  _97
REMARK   42  A    between atoms: _97  and  _98
REMARK   43  A    between atoms: _101  and  _103
REMARK   44  A    between atoms: _103  and  _104
REMARK   45  A    between atoms: _103  and  _106
REMARK   46  A    between atoms: _109  and  _111
REMARK   47  A    between atoms: _111  and  _112
REMARK   48  A    between atoms: _111  and  _114
REMARK   49  A    between atoms: _114  and  _115
REMARK   50  A    between atoms: _115  and  _116
REMARK   51  A    between atoms: _118  and  _120
REMARK   52  A    between atoms: _120  and  _121
REMARK   53  A    between atoms: _120  and  _123
REMARK   54  A    between atoms: _123  and  _124
REMARK   55  A    between atoms: _127  and  _129
REMARK   56  A    between atoms: _129  and  _130
REMARK   57  A    between atoms: _132  and  _134
REMARK   58  A    between atoms: _134  and  _135
REMARK   59  A    between atoms: _137  and  _139
REMARK   60  A    between atoms: _139  and  _140
REMARK   61  A    between atoms: _139  and  _142
REMARK   62  A    between atoms: _142  and  _143
REMARK   63  A    between atoms: _146  and  _148
REMARK   64  A    between atoms: _148  and  _149
REMARK   65  A    between atoms: _151  and  _153
REMARK   66  A    between atoms: _153  and  _154
REMARK   67  A    between atoms: _156  and  _158
REMARK   68  A    between atoms: _158  and  _159
REMARK   69  A    between atoms: _158  and  _161
REMARK   70  A    between atoms: _161  and  _162
REMARK   71  A    between atoms: _168  and  _170
REMARK   72  A    between atoms: _170  and  _171
REMARK   73  A    between atoms: _170  and  _173
REMARK   74  A    between atoms: _173  and  _174
REMARK   75  A    between atoms: _177  and  _179
REMARK   76  A    between atoms: _179  and  _180
REMARK   77  A    between atoms: _179  and  _182
REMARK   78  A    between atoms: _185  and  _187
REMARK   79  A    between atoms: _187  and  _188
REMARK   80  A    between atoms: _187  and  _190
REMARK   81  A    between atoms: _190  and  _191
REMARK   82  A    between atoms: _194  and  _196
REMARK   83  A    between atoms: _196  and  _197
REMARK   84  A    between atoms: _196  and  _199
REMARK   85  A    between atoms: _199  and  _200
REMARK   86  A    between atoms: _204  and  _205
REMARK   87  A    between atoms: _210  and  _212
REMARK   88  A    between atoms: _212  and  _213
REMARK   89  A    between atoms: _212  and  _215
REMARK   90  A    between atoms: _218  and  _220
REMARK   91  A    between atoms: _220  and  _221
REMARK   92  A    between atoms: _220  and  _223
REMARK   93  A    between atoms: _223  and  _224
REMARK   94  A    between atoms: _229  and  _231
REMARK   95  A    between atoms: _231  and  _232
REMARK   96  A    between atoms: _231  and  _234
REMARK   97  A    between atoms: _234  and  _235
REMARK   98  A    between atoms: _238  and  _240
REMARK   99  A    between atoms: _240  and  _241
REMARK  100  A    between atoms: _240  and  _243
REMARK  101  A    between atoms: _243  and  _244
REMARK  102  A    between atoms: _247  and  _249
REMARK  103  A    between atoms: _249  and  _250
REMARK  104  A    between atoms: _252  and  _254
REMARK  105  A    between atoms: _254  and  _255
REMARK  106  A    between atoms: _254  and  _257
REMARK  107  A    between atoms: _257  and  _258
REMARK  108  A    between atoms: _258  and  _259
REMARK  109  A    between atoms: _259  and  _260
REMARK  110  A    between atoms: _269  and  _271
REMARK  111  A    between atoms: _271  and  _272
REMARK  112  A    between atoms: _271  and  _274
REMARK  113  A    between atoms: _274  and  _275
REMARK  114  A    between atoms: _280  and  _282
REMARK  115  A    between atoms: _282  and  _283
REMARK  116  A    between atoms: _282  and  _285
REMARK  117  A    between atoms: _285  and  _286
REMARK  118  A    between atoms: _286  and  _287
REMARK  119  A    between atoms: _287  and  _288
REMARK  120  A    between atoms: _297  and  _299
REMARK  121  A    between atoms: _299  and  _300
REMARK  122  A    between atoms: _299  and  _302
REMARK  123  A    between atoms: _302  and  _303
REMARK  124  A    between atoms: _306  and  _308
REMARK  125  A    between atoms: _308  and  _309
REMARK  126  A    between atoms: _308  and  _311
REMARK  127  A    between atoms: _311  and  _312
REMARK  128  A    between atoms: _315  and  _317
REMARK  129  A    between atoms: _317  and  _318
REMARK  130  A    between atoms: _317  and  _320
REMARK  131  A    between atoms: _320  and  _321
REMARK  132  A    between atoms: _324  and  _326
REMARK  133  A    between atoms: _326  and  _327
REMARK  134  A    between atoms: _326  and  _329
REMARK  135  A    between atoms: _329  and  _330
REMARK  136  A    between atoms: _333  and  _335
REMARK  137  A    between atoms: _335  and  _336
REMARK  138  A    between atoms: _338  and  _340
REMARK  139  A    between atoms: _340  and  _341
REMARK  140  A    between atoms: _344  and  _346
REMARK  141  A    between atoms: _346  and  _347
REMARK  142  A    between atoms: _346  and  _349
REMARK  143  A    between atoms: _349  and  _350
REMARK  144  A    between atoms: _353  and  _355
REMARK  145  A    between atoms: _355  and  _356
REMARK  146  A    between atoms: _355  and  _358
REMARK  147  A    between atoms: _358  and  _359
REMARK  148  A    between atoms: _362  and  _364
REMARK  149  A    between atoms: _364  and  _365
REMARK  150  A    between atoms: _364  and  _367
REMARK  151  A    between atoms: _367  and  _368
REMARK  152  A    between atoms: _371  and  _373
REMARK  153  A    between atoms: _373  and  _374
REMARK  154  A    between atoms: _373  and  _376
REMARK  155  A    between atoms: _379  and  _381
REMARK  156  A    between atoms: _381  and  _382
REMARK  157  A    between atoms: _381  and  _384
REMARK  158  A    between atoms: _384  and  _385
REMARK  159  A    between atoms: _388  and  _390
REMARK  160  A    between atoms: _390  and  _391
REMARK  161  A    between atoms: _390  and  _393
REMARK  162  A    between atoms: _393  and  _394
REMARK  163  A    between atoms: _394  and  _395
REMARK  164  A    between atoms: _395  and  _396
REMARK  165  A    between atoms: _396  and  _397
REMARK  166  A    between atoms: _401  and  _403
REMARK  167  A    between atoms: _403  and  _404
REMARK  168  A    between atoms: _403  and  _406
REMARK  169  A    between atoms: _406  and  _407
REMARK  170  A    between atoms: _407  and  _408
REMARK  171  A    between atoms: _410  and  _412
REMARK  172  A    between atoms: _412  and  _413
REMARK  173  A    between atoms: _412  and  _415
REMARK  174  A    between atoms: _415  and  _416
REMARK  175  A    between atoms: _419  and  _421
REMARK  176  A    between atoms: _421  and  _422
REMARK  177  A    between atoms: _424  and  _426
REMARK  178  A    between atoms: _426  and  _427
REMARK  179  A    between atoms: _429  and  _431
REMARK  180  A    between atoms: _431  and  _432
REMARK  181  A    between atoms: _431  and  _434
REMARK  182  A    between atoms: _434  and  _435
REMARK  183  A    between atoms: _438  and  _440
REMARK  184  A    between atoms: _440  and  _441
REMARK  185  A    between atoms: _443  and  _445
REMARK  186  A    between atoms: _445  and  _446
REMARK  187  A    between atoms: _448  and  _450
REMARK  188  A    between atoms: _450  and  _451
REMARK  189  A    between atoms: _450  and  _453
REMARK  190  A    between atoms: _453  and  _454
REMARK  191  A    between atoms: _457  and  _459
REMARK  192  A    between atoms: _459  and  _460
REMARK  193  A    between atoms: _459  and  _462
REMARK  194  A    between atoms: _465  and  _467
REMARK  195  A    between atoms: _467  and  _468
REMARK  196  A    between atoms: _467  and  _470
REMARK  197  A    between atoms: _470  and  _471
REMARK  198  A    between atoms: _474  and  _476
REMARK  199  A    between atoms: _476  and  _477
REMARK  200  A    between atoms: _476  and  _479
REMARK  201  A    between atoms: _479  and  _480
REMARK  202  A    between atoms: _484  and  _485
REMARK  203  A    between atoms: _490  and  _492
REMARK  204  A    between atoms: _492  and  _493
REMARK  205  A    between atoms: _492  and  _495
REMARK  206  A    between atoms: _498  and  _500
REMARK  207  A    between atoms: _500  and  _501
REMARK  208  A    between atoms: _500  and  _503
REMARK  209  A    between atoms: _503  and  _504
REMARK  210  A    between atoms: _509  and  _511
REMARK  211  A    between atoms: _511  and  _512
REMARK  212  A    between atoms: _511  and  _514
REMARK  213  A    between atoms: _514  and  _515
REMARK  214  A    between atoms: _518  and  _520
REMARK  215  A    between atoms: _520  and  _521
REMARK  216  A    between atoms: _520  and  _523
REMARK  217  A    between atoms: _523  and  _524
REMARK  218  A    between atoms: _527  and  _529
REMARK  219  A    between atoms: _529  and  _530
REMARK  220  A    between atoms: _532  and  _534
REMARK  221  A    between atoms: _534  and  _535
REMARK  222  A    between atoms: _534  and  _537
REMARK  223  A    between atoms: _537  and  _538
REMARK  224  A    between atoms: _538  and  _539
REMARK  225  A    between atoms: _539  and  _540
REMARK  226  A    between atoms: _549  and  _551
REMARK  227  A    between atoms: _551  and  _552
REMARK  228  A    between atoms: _551  and  _554
REMARK  229  A    between atoms: _554  and  _555
REMARK                            x       y       z     vdW  Elec       q    Type
REMARK                         _______ _______ _______ _____ _____    ______ ____
ROOT
ATOM      1  O   HOH     1      20.803  32.866  23.243  0.00  0.00    +0.000 OA
ENDROOT
TORSDOF 0
REMARK  Name = ../refined-set-2016/2avo/2avo_pocket.pdb
REMARK  229 active torsions:
REMARK  status: ('A' for Active; 'I' for Inactive)
REMARK    1  A    between atoms: _1  and  _3
REMARK    2  A    between atoms: _3  and  _4
REMARK    3  A    between atoms: _3  and  _6
REMARK    4  A    between atoms: _6  and  _7
REMARK    5  A    between atoms: _7  and  _8
REMARK    6  A    between atoms: _8  and  _9
REMARK    7  A    between atoms: _18  and  _20
REMARK    8  A    between atoms: _20  and  _21
REMARK    9  A    between atoms: _20  and  _23
REMARK   10  A    between atoms: _23  and  _24
REMARK   11  A    between atoms: _27  and  _29
REMARK   12  A    between atoms: _29  and  _30
REMARK   13  A    between atoms: _29  and  _32
REMARK   14  A    between atoms: _32  and  _33
REMARK   15  A    between atoms: _36  and  _38
REMARK   16  A    between atoms: _38  and  _39
REMARK   17  A    between atoms: _38  and  _41
REMARK   18  A    between atoms: _41  and  _42
REMARK   19  A    between atoms: _45  and  _47
REMARK   20  A    between atoms: _47  and  _48
REMARK   21  A    between atoms: _47  and  _50
REMARK   22  A    between atoms: _50  and  _51
REMARK   23  A    between atoms: _54  and  _56
REMARK   24  A    between atoms: _56  and  _57
REMARK   25  A    between atoms: _56  and  _59
REMARK   26  A    between atoms: _59  and  _60
REMARK   27  A    between atoms: _63  and  _65
REMARK   28  A    between atoms: _65  and  _66
REMARK   29  A    between atoms: _68  and  _70
REMARK   30  A    between atoms: _70  and  _71
REMARK   31  A    between atoms: _74  and  _76
REMARK   32  A    between atoms: _76  and  _77
REMARK   33  A    between atoms: _76  and  _79
REMARK   34  A    between atoms: _79  and  _80
REMARK   35  A    between atoms: _83  and  _85
REMARK   36  A    between atoms: _85  and  _86
REMARK   37  A    between atoms: _85  and  _88
REMARK   38  A    between atoms: _88  and  _89
REMARK   39  A    between atoms: _92  and  _94
REMARK   40  A    between atoms: _94  and  _95
REMARK   41  A    between atoms: _94  and  _97
REMARK   42  A    between atoms: _97  and  _98
REMARK   43  A    between atoms: _101  and  _103
REMARK   44  A    between atoms: _103  and  _104
REMARK   45  A    between atoms: _103  and  _106
REMARK   46  A    between atoms: _109  and  _111
REMARK   47  A    between atoms: _111  and  _112
REMARK   48  A    between atoms: _111  and  _114
REMARK   49  A    between atoms: _114  and  _115
REMARK   50  A    between atoms: _115  and  _116
REMARK   51  A    between atoms: _118  and  _120
REMARK   52  A    between atoms: _120  and  _121
REMARK   53  A    between atoms: _120  and  _123
REMARK   54  A    between atoms: _123  and  _124
REMARK   55  A    between atoms: _127  and  _129
REMARK   56  A    between atoms: _129  and  _130
REMARK   57  A    between atoms: _132  and  _134
REMARK   58  A    between atoms: _134  and  _135
REMARK   59  A    between atoms: _137  and  _139
REMARK   60  A    between atoms: _139  and  _140
REMARK   61  A    between atoms: _139  and  _142
REMARK   62  A    between atoms: _142  and  _143
REMARK   63  A    between atoms: _146  and  _148
REMARK   64  A    between atoms: _148  and  _149
REMARK   65  A    between atoms: _151  and  _153
REMARK   66  A    between atoms: _153  and  _154
REMARK   67  A    between atoms: _156  and  _158
REMARK   68  A    between atoms: _158  and  _159
REMARK   69  A    between atoms: _158  and  _161
REMARK   70  A    between atoms: _161  and  _162
REMARK   71  A    between atoms: _168  and  _170
REMARK   72  A    between atoms: _170  and  _171
REMARK   73  A    between atoms: _170  and  _173
REMARK   74  A    between atoms: _173  and  _174
REMARK   75  A    between atoms: _177  and  _179
REMARK   76  A    between atoms: _179  and  _180
REMARK   77  A    between atoms: _179  and  _182
REMARK   78  A    between atoms: _185  and  _187
REMARK   79  A    between atoms: _187  and  _188
REMARK   80  A    between atoms: _187  and  _190
REMARK   81  A    between atoms: _190  and  _191
REMARK   82  A    between atoms: _194  and  _196
REMARK   83  A    between atoms: _196  and  _197
REMARK   84  A    between atoms: _196  and  _199
REMARK   85  A    between atoms: _199  and  _200
REMARK   86  A    between atoms: _204  and  _205
REMARK   87  A    between atoms: _210  and  _212
REMARK   88  A    between atoms: _212  and  _213
REMARK   89  A    between atoms: _212  and  _215
REMARK   90  A    between atoms: _218  and  _220
REMARK   91  A    between atoms: _220  and  _221
REMARK   92  A    between atoms: _220  and  _223
REMARK   93  A    between atoms: _223  and  _224
REMARK   94  A    between atoms: _229  and  _231
REMARK   95  A    between atoms: _231  and  _232
REMARK   96  A    between atoms: _231  and  _234
REMARK   97  A    between atoms: _234  and  _235
REMARK   98  A    between atoms: _238  and  _240
REMARK   99  A    between atoms: _240  and  _241
REMARK  100  A    between atoms: _240  and  _243
REMARK  101  A    between atoms: _243  and  _244
REMARK  102  A    between atoms: _247  and  _249
REMARK  103  A    between atoms: _249  and  _250
REMARK  104  A    between atoms: _252  and  _254
REMARK  105  A    between atoms: _254  and  _255
REMARK  106  A    between atoms: _254  and  _257
REMARK  107  A    between atoms: _257  and  _258
REMARK  108  A    between atoms: _258  and  _259
REMARK  109  A    between atoms: _259  and  _260
REMARK  110  A    between atoms: _269  and  _271
REMARK  111  A    between atoms: _271  and  _272
REMARK  112  A    between atoms: _271  and  _274
REMARK  113  A    between atoms: _274  and  _275
REMARK  114  A    between atoms: _280  and  _282
REMARK  115  A    between atoms: _282  and  _283
REMARK  116  A    between atoms: _282  and  _285
REMARK  117  A    between atoms: _285  and  _286
REMARK  118  A    between atoms: _286  and  _287
REMARK  119  A    between atoms: _287  and  _288
REMARK  120  A    between atoms: _297  and  _299
REMARK  121  A    between atoms: _299  and  _300
REMARK  122  A    between atoms: _299  and  _302
REMARK  123  A    between atoms: _302  and  _303
REMARK  124  A    between atoms: _306  and  _308
REMARK  125  A    between atoms: _308  and  _309
REMARK  126  A    between atoms: _308  and  _311
REMARK  127  A    between atoms: _311  and  _312
REMARK  128  A    between atoms: _315  and  _317
REMARK  129  A    between atoms: _317  and  _318
REMARK  130  A    between atoms: _317  and  _320
REMARK  131  A    between atoms: _320  and  _321
REMARK  132  A    between atoms: _324  and  _326
REMARK  133  A    between atoms: _326  and  _327
REMARK  134  A    between atoms: _326  and  _329
REMARK  135  A    between atoms: _329  and  _330
REMARK  136  A    between atoms: _333  and  _335
REMARK  137  A    between atoms: _335  and  _336
REMARK  138  A    between atoms: _338  and  _340
REMARK  139  A    between atoms: _340  and  _341
REMARK  140  A    between atoms: _344  and  _346
REMARK  141  A    between atoms: _346  and  _347
REMARK  142  A    between atoms: _346  and  _349
REMARK  143  A    between atoms: _349  and  _350
REMARK  144  A    between atoms: _353  and  _355
REMARK  145  A    between atoms: _355  and  _356
REMARK  146  A    between atoms: _355  and  _358
REMARK  147  A    between atoms: _358  and  _359
REMARK  148  A    between atoms: _362  and  _364
REMARK  149  A    between atoms: _364  and  _365
REMARK  150  A    between atoms: _364  and  _367
REMARK  151  A    between atoms: _367  and  _368
REMARK  152  A    between atoms: _371  and  _373
REMARK  153  A    between atoms: _373  and  _374
REMARK  154  A    between atoms: _373  and  _376
REMARK  155  A    between atoms: _379  and  _381
REMARK  156  A    between atoms: _381  and  _382
REMARK  157  A    between atoms: _381  and  _384
REMARK  158  A    between atoms: _384  and  _385
REMARK  159  A    between atoms: _388  and  _390
REMARK  160  A    between atoms: _390  and  _391
REMARK  161  A    between atoms: _390  and  _393
REMARK  162  A    between atoms: _393  and  _394
REMARK  163  A    between atoms: _394  and  _395
REMARK  164  A    between atoms: _395  and  _396
REMARK  165  A    between atoms: _396  and  _397
REMARK  166  A    between atoms: _401  and  _403
REMARK  167  A    between atoms: _403  and  _404
REMARK  168  A    between atoms: _403  and  _406
REMARK  169  A    between atoms: _406  and  _407
REMARK  170  A    between atoms: _407  and  _408
REMARK  171  A    between atoms: _410  and  _412
REMARK  172  A    between atoms: _412  and  _413
REMARK  173  A    between atoms: _412  and  _415
REMARK  174  A    between atoms: _415  and  _416
REMARK  175  A    between atoms: _419  and  _421
REMARK  176  A    between atoms: _421  and  _422
REMARK  177  A    between atoms: _424  and  _426
REMARK  178  A    between atoms: _426  and  _427
REMARK  179  A    between atoms: _429  and  _431
REMARK  180  A    between atoms: _431  and  _432
REMARK  181  A    between atoms: _431  and  _434
REMARK  182  A    between atoms: _434  and  _435
REMARK  183  A    between atoms: _438  and  _440
REMARK  184  A    between atoms: _440  and  _441
REMARK  185  A    between atoms: _443  and  _445
REMARK  186  A    between atoms: _445  and  _446
REMARK  187  A    between atoms: _448  and  _450
REMARK  188  A    between atoms: _450  and  _451
REMARK  189  A    between atoms: _450  and  _453
REMARK  190  A    between atoms: _453  and  _454
REMARK  191  A    between atoms: _457  and  _459
REMARK  192  A    between atoms: _459  and  _460
REMARK  193  A    between atoms: _459  and  _462
REMARK  194  A    between atoms: _465  and  _467
REMARK  195  A    between atoms: _467  and  _468
REMARK  196  A    between atoms: _467  and  _470
REMARK  197  A    between atoms: _470  and  _471
REMARK  198  A    between atoms: _474  and  _476
REMARK  199  A    between atoms: _476  and  _477
REMARK  200  A    between atoms: _476  and  _479
REMARK  201  A    between atoms: _479  and  _480
REMARK  202  A    between atoms: _484  and  _485
REMARK  203  A    between atoms: _490  and  _492
REMARK  204  A    between atoms: _492  and  _493
REMARK  205  A    between atoms: _492  and  _495
REMARK  206  A    between atoms: _498  and  _500
REMARK  207  A    between atoms: _500  and  _501
REMARK  208  A    between atoms: _500  and  _503
REMARK  209  A    between atoms: _503  and  _504
REMARK  210  A    between atoms: _509  and  _511
REMARK  211  A    between atoms: _511  and  _512
REMARK  212  A    between atoms: _511  and  _514
REMARK  213  A    between atoms: _514  and  _515
REMARK  214  A    between atoms: _518  and  _520
REMARK  215  A    between atoms: _520  and  _521
REMARK  216  A    between atoms: _520  and  _523
REMARK  217  A    between atoms: _523  and  _524
REMARK  218  A    between atoms: _527  and  _529
REMARK  219  A    between atoms: _529  and  _530
REMARK  220  A    between atoms: _532  and  _534
REMARK  221  A    between atoms: _534  and  _535
REMARK  222  A    between atoms: _534  and  _537
REMARK  223  A    between atoms: _537  and  _538
REMARK  224  A    between atoms: _538  and  _539
REMARK  225  A    between atoms: _539  and  _540
REMARK  226  A    between atoms: _549  and  _551
REMARK  227  A    between atoms: _551  and  _552
REMARK  228  A    between atoms: _551  and  _554
REMARK  229  A    between atoms: _554  and  _555
REMARK                            x       y       z     vdW  Elec       q    Type
REMARK                         _______ _______ _______ _____ _____    ______ ____
ROOT
ATOM      1  O   HOH     1      18.851  35.387  18.921  0.00  0.00    +0.000 OA
ENDROOT
TORSDOF 0
REMARK  Name = ../refined-set-2016/2avo/2avo_pocket.pdb
REMARK  229 active torsions:
REMARK  status: ('A' for Active; 'I' for Inactive)
REMARK    1  A    between atoms: _1  and  _3
REMARK    2  A    between atoms: _3  and  _4
REMARK    3  A    between atoms: _3  and  _6
REMARK    4  A    between atoms: _6  and  _7
REMARK    5  A    between atoms: _7  and  _8
REMARK    6  A    between atoms: _8  and  _9
REMARK    7  A    between atoms: _18  and  _20
REMARK    8  A    between atoms: _20  and  _21
REMARK    9  A    between atoms: _20  and  _23
REMARK   10  A    between atoms: _23  and  _24
REMARK   11  A    between atoms: _27  and  _29
REMARK   12  A    between atoms: _29  and  _30
REMARK   13  A    between atoms: _29  and  _32
REMARK   14  A    between atoms: _32  and  _33
REMARK   15  A    between atoms: _36  and  _38
REMARK   16  A    between atoms: _38  and  _39
REMARK   17  A    between atoms: _38  and  _41
REMARK   18  A    between atoms: _41  and  _42
REMARK   19  A    between atoms: _45  and  _47
REMARK   20  A    between atoms: _47  and  _48
REMARK   21  A    between atoms: _47  and  _50
REMARK   22  A    between atoms: _50  and  _51
REMARK   23  A    between atoms: _54  and  _56
REMARK   24  A    between atoms: _56  and  _57
REMARK   25  A    between atoms: _56  and  _59
REMARK   26  A    between atoms: _59  and  _60
REMARK   27  A    between atoms: _63  and  _65
REMARK   28  A    between atoms: _65  and  _66
REMARK   29  A    between atoms: _68  and  _70
REMARK   30  A    between atoms: _70  and  _71
REMARK   31  A    between atoms: _74  and  _76
REMARK   32  A    between atoms: _76  and  _77
REMARK   33  A    between atoms: _76  and  _79
REMARK   34  A    between atoms: _79  and  _80
REMARK   35  A    between atoms: _83  and  _85
REMARK   36  A    between atoms: _85  and  _86
REMARK   37  A    between atoms: _85  and  _88
REMARK   38  A    between atoms: _88  and  _89
REMARK   39  A    between atoms: _92  and  _94
REMARK   40  A    between atoms: _94  and  _95
REMARK   41  A    between atoms: _94  and  _97
REMARK   42  A    between atoms: _97  and  _98
REMARK   43  A    between atoms: _101  and  _103
REMARK   44  A    between atoms: _103  and  _104
REMARK   45  A    between atoms: _103  and  _106
REMARK   46  A    between atoms: _109  and  _111
REMARK   47  A    between atoms: _111  and  _112
REMARK   48  A    between atoms: _111  and  _114
REMARK   49  A    between atoms: _114  and  _115
REMARK   50  A    between atoms: _115  and  _116
REMARK   51  A    between atoms: _118  and  _120
REMARK   52  A    between atoms: _120  and  _121
REMARK   53  A    between atoms: _120  and  _123
REMARK   54  A    between atoms: _123  and  _124
REMARK   55  A    between atoms: _127  and  _129
REMARK   56  A    between atoms: _129  and  _130
REMARK   57  A    between atoms: _132  and  _134
REMARK   58  A    between atoms: _134  and  _135
REMARK   59  A    between atoms: _137  and  _139
REMARK   60  A    between atoms: _139  and  _140
REMARK   61  A    between atoms: _139  and  _142
REMARK   62  A    between atoms: _142  and  _143
REMARK   63  A    between atoms: _146  and  _148
REMARK   64  A    between atoms: _148  and  _149
REMARK   65  A    between atoms: _151  and  _153
REMARK   66  A    between atoms: _153  and  _154
REMARK   67  A    between atoms: _156  and  _158
REMARK   68  A    between atoms: _158  and  _159
REMARK   69  A    between atoms: _158  and  _161
REMARK   70  A    between atoms: _161  and  _162
REMARK   71  A    between atoms: _168  and  _170
REMARK   72  A    between atoms: _170  and  _171
REMARK   73  A    between atoms: _170  and  _173
REMARK   74  A    between atoms: _173  and  _174
REMARK   75  A    between atoms: _177  and  _179
REMARK   76  A    between atoms: _179  and  _180
REMARK   77  A    between atoms: _179  and  _182
REMARK   78  A    between atoms: _185  and  _187
REMARK   79  A    between atoms: _187  and  _188
REMARK   80  A    between atoms: _187  and  _190
REMARK   81  A    between atoms: _190  and  _191
REMARK   82  A    between atoms: _194  and  _196
REMARK   83  A    between atoms: _196  and  _197
REMARK   84  A    between atoms: _196  and  _199
REMARK   85  A    between atoms: _199  and  _200
REMARK   86  A    between atoms: _204  and  _205
REMARK   87  A    between atoms: _210  and  _212
REMARK   88  A    between atoms: _212  and  _213
REMARK   89  A    between atoms: _212  and  _215
REMARK   90  A    between atoms: _218  and  _220
REMARK   91  A    between atoms: _220  and  _221
REMARK   92  A    between atoms: _220  and  _223
REMARK   93  A    between atoms: _223  and  _224
REMARK   94  A    between atoms: _229  and  _231
REMARK   95  A    between atoms: _231  and  _232
REMARK   96  A    between atoms: _231  and  _234
REMARK   97  A    between atoms: _234  and  _235
REMARK   98  A    between atoms: _238  and  _240
REMARK   99  A    between atoms: _240  and  _241
REMARK  100  A    between atoms: _240  and  _243
REMARK  101  A    between atoms: _243  and  _244
REMARK  102  A    between atoms: _247  and  _249
REMARK  103  A    between atoms: _249  and  _250
REMARK  104  A    between atoms: _252  and  _254
REMARK  105  A    between atoms: _254  and  _255
REMARK  106  A    between atoms: _254  and  _257
REMARK  107  A    between atoms: _257  and  _258
REMARK  108  A    between atoms: _258  and  _259
REMARK  109  A    between atoms: _259  and  _260
REMARK  110  A    between atoms: _269  and  _271
REMARK  111  A    between atoms: _271  and  _272
REMARK  112  A    between atoms: _271  and  _274
REMARK  113  A    between atoms: _274  and  _275
REMARK  114  A    between atoms: _280  and  _282
REMARK  115  A    between atoms: _282  and  _283
REMARK  116  A    between atoms: _282  and  _285
REMARK  117  A    between atoms: _285  and  _286
REMARK  118  A    between atoms: _286  and  _287
REMARK  119  A    between atoms: _287  and  _288
REMARK  120  A    between atoms: _297  and  _299
REMARK  121  A    between atoms: _299  and  _300
REMARK  122  A    between atoms: _299  and  _302
REMARK  123  A    between atoms: _302  and  _303
REMARK  124  A    between atoms: _306  and  _308
REMARK  125  A    between atoms: _308  and  _309
REMARK  126  A    between atoms: _308  and  _311
REMARK  127  A    between atoms: _311  and  _312
REMARK  128  A    between atoms: _315  and  _317
REMARK  129  A    between atoms: _317  and  _318
REMARK  130  A    between atoms: _317  and  _320
REMARK  131  A    between atoms: _320  and  _321
REMARK  132  A    between atoms: _324  and  _326
REMARK  133  A    between atoms: _326  and  _327
REMARK  134  A    between atoms: _326  and  _329
REMARK  135  A    between atoms: _329  and  _330
REMARK  136  A    between atoms: _333  and  _335
REMARK  137  A    between atoms: _335  and  _336
REMARK  138  A    between atoms: _338  and  _340
REMARK  139  A    between atoms: _340  and  _341
REMARK  140  A    between atoms: _344  and  _346
REMARK  141  A    between atoms: _346  and  _347
REMARK  142  A    between atoms: _346  and  _349
REMARK  143  A    between atoms: _349  and  _350
REMARK  144  A    between atoms: _353  and  _355
REMARK  145  A    between atoms: _355  and  _356
REMARK  146  A    between atoms: _355  and  _358
REMARK  147  A    between atoms: _358  and  _359
REMARK  148  A    between atoms: _362  and  _364
REMARK  149  A    between atoms: _364  and  _365
REMARK  150  A    between atoms: _364  and  _367
REMARK  151  A    between atoms: _367  and  _368
REMARK  152  A    between atoms: _371  and  _373
REMARK  153  A    between atoms: _373  and  _374
REMARK  154  A    between atoms: _373  and  _376
REMARK  155  A    between atoms: _379  and  _381
REMARK  156  A    between atoms: _381  and  _382
REMARK  157  A    between atoms: _381  and  _384
REMARK  158  A    between atoms: _384  and  _385
REMARK  159  A    between atoms: _388  and  _390
REMARK  160  A    between atoms: _390  and  _391
REMARK  161  A    between atoms: _390  and  _393
REMARK  162  A    between atoms: _393  and  _394
REMARK  163  A    between atoms: _394  and  _395
REMARK  164  A    between atoms: _395  and  _396
REMARK  165  A    between atoms: _396  and  _397
REMARK  166  A    between atoms: _401  and  _403
REMARK  167  A    between atoms: _403  and  _404
REMARK  168  A    between atoms: _403  and  _406
REMARK  169  A    between atoms: _406  and  _407
REMARK  170  A    between atoms: _407  and  _408
REMARK  171  A    between atoms: _410  and  _412
REMARK  172  A    between atoms: _412  and  _413
REMARK  173  A    between atoms: _412  and  _415
REMARK  174  A    between atoms: _415  and  _416
REMARK  175  A    between atoms: _419  and  _421
REMARK  176  A    between atoms: _421  and  _422
REMARK  177  A    between atoms: _424  and  _426
REMARK  178  A    between atoms: _426  and  _427
REMARK  179  A    between atoms: _429  and  _431
REMARK  180  A    between atoms: _431  and  _432
REMARK  181  A    between atoms: _431  and  _434
REMARK  182  A    between atoms: _434  and  _435
REMARK  183  A    between atoms: _438  and  _440
REMARK  184  A    between atoms: _440  and  _441
REMARK  185  A    between atoms: _443  and  _445
REMARK  186  A    between atoms: _445  and  _446
REMARK  187  A    between atoms: _448  and  _450
REMARK  188  A    between atoms: _450  and  _451
REMARK  189  A    between atoms: _450  and  _453
REMARK  190  A    between atoms: _453  and  _454
REMARK  191  A    between atoms: _457  and  _459
REMARK  192  A    between atoms: _459  and  _460
REMARK  193  A    between atoms: _459  and  _462
REMARK  194  A    between atoms: _465  and  _467
REMARK  195  A    between atoms: _467  and  _468
REMARK  196  A    between atoms: _467  and  _470
REMARK  197  A    between atoms: _470  and  _471
REMARK  198  A    between atoms: _474  and  _476
REMARK  199  A    between atoms: _476  and  _477
REMARK  200  A    between atoms: _476  and  _479
REMARK  201  A    between atoms: _479  and  _480
REMARK  202  A    between atoms: _484  and  _485
REMARK  203  A    between atoms: _490  and  _492
REMARK  204  A    between atoms: _492  and  _493
REMARK  205  A    between atoms: _492  and  _495
REMARK  206  A    between atoms: _498  and  _500
REMARK  207  A    between atoms: _500  and  _501
REMARK  208  A    between atoms: _500  and  _503
REMARK  209  A    between atoms: _503  and  _504
REMARK  210  A    between atoms: _509  and  _511
REMARK  211  A    between atoms: _511  and  _512
REMARK  212  A    between atoms: _511  and  _514
REMARK  213  A    between atoms: _514  and  _515
REMARK  214  A    between atoms: _518  and  _520
REMARK  215  A    between atoms: _520  and  _521
REMARK  216  A    between atoms: _520  and  _523
REMARK  217  A    between atoms: _523  and  _524
REMARK  218  A    between atoms: _527  and  _529
REMARK  219  A    between atoms: _529  and  _530
REMARK  220  A    between atoms: _532  and  _534
REMARK  221  A    between atoms: _534  and  _535
REMARK  222  A    between atoms: _534  and  _537
REMARK  223  A    between atoms: _537  and  _538
REMARK  224  A    between atoms: _538  and  _539
REMARK  225  A    between atoms: _539  and  _540
REMARK  226  A    between atoms: _549  and  _551
REMARK  227  A    between atoms: _551  and  _552
REMARK  228  A    between atoms: _551  and  _554
REMARK  229  A    between atoms: _554  and  _555
REMARK                            x       y       z     vdW  Elec       q    Type
REMARK                         _______ _______ _______ _____ _____    ______ ____
ROOT
ATOM      1  O   HOH     1       9.839  35.424  20.921  0.00  0.00    +0.000 OA
ENDROOT
TORSDOF 0
REMARK  Name = ../refined-set-2016/2avo/2avo_pocket.pdb
REMARK  229 active torsions:
REMARK  status: ('A' for Active; 'I' for Inactive)
REMARK    1  A    between atoms: _1  and  _3
REMARK    2  A    between atoms: _3  and  _4
REMARK    3  A    between atoms: _3  and  _6
REMARK    4  A    between atoms: _6  and  _7
REMARK    5  A    between atoms: _7  and  _8
REMARK    6  A    between atoms: _8  and  _9
REMARK    7  A    between atoms: _18  and  _20
REMARK    8  A    between atoms: _20  and  _21
REMARK    9  A    between atoms: _20  and  _23
REMARK   10  A    between atoms: _23  and  _24
REMARK   11  A    between atoms: _27  and  _29
REMARK   12  A    between atoms: _29  and  _30
REMARK   13  A    between atoms: _29  and  _32
REMARK   14  A    between atoms: _32  and  _33
REMARK   15  A    between atoms: _36  and  _38
REMARK   16  A    between atoms: _38  and  _39
REMARK   17  A    between atoms: _38  and  _41
REMARK   18  A    between atoms: _41  and  _42
REMARK   19  A    between atoms: _45  and  _47
REMARK   20  A    between atoms: _47  and  _48
REMARK   21  A    between atoms: _47  and  _50
REMARK   22  A    between atoms: _50  and  _51
REMARK   23  A    between atoms: _54  and  _56
REMARK   24  A    between atoms: _56  and  _57
REMARK   25  A    between atoms: _56  and  _59
REMARK   26  A    between atoms: _59  and  _60
REMARK   27  A    between atoms: _63  and  _65
REMARK   28  A    between atoms: _65  and  _66
REMARK   29  A    between atoms: _68  and  _70
REMARK   30  A    between atoms: _70  and  _71
REMARK   31  A    between atoms: _74  and  _76
REMARK   32  A    between atoms: _76  and  _77
REMARK   33  A    between atoms: _76  and  _79
REMARK   34  A    between atoms: _79  and  _80
REMARK   35  A    between atoms: _83  and  _85
REMARK   36  A    between atoms: _85  and  _86
REMARK   37  A    between atoms: _85  and  _88
REMARK   38  A    between atoms: _88  and  _89
REMARK   39  A    between atoms: _92  and  _94
REMARK   40  A    between atoms: _94  and  _95
REMARK   41  A    between atoms: _94  and  _97
REMARK   42  A    between atoms: _97  and  _98
REMARK   43  A    between atoms: _101  and  _103
REMARK   44  A    between atoms: _103  and  _104
REMARK   45  A    between atoms: _103  and  _106
REMARK   46  A    between atoms: _109  and  _111
REMARK   47  A    between atoms: _111  and  _112
REMARK   48  A    between atoms: _111  and  _114
REMARK   49  A    between atoms: _114  and  _115
REMARK   50  A    between atoms: _115  and  _116
REMARK   51  A    between atoms: _118  and  _120
REMARK   52  A    between atoms: _120  and  _121
REMARK   53  A    between atoms: _120  and  _123
REMARK   54  A    between atoms: _123  and  _124
REMARK   55  A    between atoms: _127  and  _129
REMARK   56  A    between atoms: _129  and  _130
REMARK   57  A    between atoms: _132  and  _134
REMARK   58  A    between atoms: _134  and  _135
REMARK   59  A    between atoms: _137  and  _139
REMARK   60  A    between atoms: _139  and  _140
REMARK   61  A    between atoms: _139  and  _142
REMARK   62  A    between atoms: _142  and  _143
REMARK   63  A    between atoms: _146  and  _148
REMARK   64  A    between atoms: _148  and  _149
REMARK   65  A    between atoms: _151  and  _153
REMARK   66  A    between atoms: _153  and  _154
REMARK   67  A    between atoms: _156  and  _158
REMARK   68  A    between atoms: _158  and  _159
REMARK   69  A    between atoms: _158  and  _161
REMARK   70  A    between atoms: _161  and  _162
REMARK   71  A    between atoms: _168  and  _170
REMARK   72  A    between atoms: _170  and  _171
REMARK   73  A    between atoms: _170  and  _173
REMARK   74  A    between atoms: _173  and  _174
REMARK   75  A    between atoms: _177  and  _179
REMARK   76  A    between atoms: _179  and  _180
REMARK   77  A    between atoms: _179  and  _182
REMARK   78  A    between atoms: _185  and  _187
REMARK   79  A    between atoms: _187  and  _188
REMARK   80  A    between atoms: _187  and  _190
REMARK   81  A    between atoms: _190  and  _191
REMARK   82  A    between atoms: _194  and  _196
REMARK   83  A    between atoms: _196  and  _197
REMARK   84  A    between atoms: _196  and  _199
REMARK   85  A    between atoms: _199  and  _200
REMARK   86  A    between atoms: _204  and  _205
REMARK   87  A    between atoms: _210  and  _212
REMARK   88  A    between atoms: _212  and  _213
REMARK   89  A    between atoms: _212  and  _215
REMARK   90  A    between atoms: _218  and  _220
REMARK   91  A    between atoms: _220  and  _221
REMARK   92  A    between atoms: _220  and  _223
REMARK   93  A    between atoms: _223  and  _224
REMARK   94  A    between atoms: _229  and  _231
REMARK   95  A    between atoms: _231  and  _232
REMARK   96  A    between atoms: _231  and  _234
REMARK   97  A    between atoms: _234  and  _235
REMARK   98  A    between atoms: _238  and  _240
REMARK   99  A    between atoms: _240  and  _241
REMARK  100  A    between atoms: _240  and  _243
REMARK  101  A    between atoms: _243  and  _244
REMARK  102  A    between atoms: _247  and  _249
REMARK  103  A    between atoms: _249  and  _250
REMARK  104  A    between atoms: _252  and  _254
REMARK  105  A    between atoms: _254  and  _255
REMARK  106  A    between atoms: _254  and  _257
REMARK  107  A    between atoms: _257  and  _258
REMARK  108  A    between atoms: _258  and  _259
REMARK  109  A    between atoms: _259  and  _260
REMARK  110  A    between atoms: _269  and  _271
REMARK  111  A    between atoms: _271  and  _272
REMARK  112  A    between atoms: _271  and  _274
REMARK  113  A    between atoms: _274  and  _275
REMARK  114  A    between atoms: _280  and  _282
REMARK  115  A    between atoms: _282  and  _283
REMARK  116  A    between atoms: _282  and  _285
REMARK  117  A    between atoms: _285  and  _286
REMARK  118  A    between atoms: _286  and  _287
REMARK  119  A    between atoms: _287  and  _288
REMARK  120  A    between atoms: _297  and  _299
REMARK  121  A    between atoms: _299  and  _300
REMARK  122  A    between atoms: _299  and  _302
REMARK  123  A    between atoms: _302  and  _303
REMARK  124  A    between atoms: _306  and  _308
REMARK  125  A    between atoms: _308  and  _309
REMARK  126  A    between atoms: _308  and  _311
REMARK  127  A    between atoms: _311  and  _312
REMARK  128  A    between atoms: _315  and  _317
REMARK  129  A    between atoms: _317  and  _318
REMARK  130  A    between atoms: _317  and  _320
REMARK  131  A    between atoms: _320  and  _321
REMARK  132  A    between atoms: _324  and  _326
REMARK  133  A    between atoms: _326  and  _327
REMARK  134  A    between atoms: _326  and  _329
REMARK  135  A    between atoms: _329  and  _330
REMARK  136  A    between atoms: _333  and  _335
REMARK  137  A    between atoms: _335  and  _336
REMARK  138  A    between atoms: _338  and  _340
REMARK  139  A    between atoms: _340  and  _341
REMARK  140  A    between atoms: _344  and  _346
REMARK  141  A    between atoms: _346  and  _347
REMARK  142  A    between atoms: _346  and  _349
REMARK  143  A    between atoms: _349  and  _350
REMARK  144  A    between atoms: _353  and  _355
REMARK  145  A    between atoms: _355  and  _356
REMARK  146  A    between atoms: _355  and  _358
REMARK  147  A    between atoms: _358  and  _359
REMARK  148  A    between atoms: _362  and  _364
REMARK  149  A    between atoms: _364  and  _365
REMARK  150  A    between atoms: _364  and  _367
REMARK  151  A    between atoms: _367  and  _368
REMARK  152  A    between atoms: _371  and  _373
REMARK  153  A    between atoms: _373  and  _374
REMARK  154  A    between atoms: _373  and  _376
REMARK  155  A    between atoms: _379  and  _381
REMARK  156  A    between atoms: _381  and  _382
REMARK  157  A    between atoms: _381  and  _384
REMARK  158  A    between atoms: _384  and  _385
REMARK  159  A    between atoms: _388  and  _390
REMARK  160  A    between atoms: _390  and  _391
REMARK  161  A    between atoms: _390  and  _393
REMARK  162  A    between atoms: _393  and  _394
REMARK  163  A    between atoms: _394  and  _395
REMARK  164  A    between atoms: _395  and  _396
REMARK  165  A    between atoms: _396  and  _397
REMARK  166  A    between atoms: _401  and  _403
REMARK  167  A    between atoms: _403  and  _404
REMARK  168  A    between atoms: _403  and  _406
REMARK  169  A    between atoms: _406  and  _407
REMARK  170  A    between atoms: _407  and  _408
REMARK  171  A    between atoms: _410  and  _412
REMARK  172  A    between atoms: _412  and  _413
REMARK  173  A    between atoms: _412  and  _415
REMARK  174  A    between atoms: _415  and  _416
REMARK  175  A    between atoms: _419  and  _421
REMARK  176  A    between atoms: _421  and  _422
REMARK  177  A    between atoms: _424  and  _426
REMARK  178  A    between atoms: _426  and  _427
REMARK  179  A    between atoms: _429  and  _431
REMARK  180  A    between atoms: _431  and  _432
REMARK  181  A    between atoms: _431  and  _434
REMARK  182  A    between atoms: _434  and  _435
REMARK  183  A    between atoms: _438  and  _440
REMARK  184  A    between atoms: _440  and  _441
REMARK  185  A    between atoms: _443  and  _445
REMARK  186  A    between atoms: _445  and  _446
REMARK  187  A    between atoms: _448  and  _450
REMARK  188  A    between atoms: _450  and  _451
REMARK  189  A    between atoms: _450  and  _453
REMARK  190  A    between atoms: _453  and  _454
REMARK  191  A    between atoms: _457  and  _459
REMARK  192  A    between atoms: _459  and  _460
REMARK  193  A    between atoms: _459  and  _462
REMARK  194  A    between atoms: _465  and  _467
REMARK  195  A    between atoms: _467  and  _468
REMARK  196  A    between atoms: _467  and  _470
REMARK  197  A    between atoms: _470  and  _471
REMARK  198  A    between atoms: _474  and  _476
REMARK  199  A    between atoms: _476  and  _477
REMARK  200  A    between atoms: _476  and  _479
REMARK  201  A    between atoms: _479  and  _480
REMARK  202  A    between atoms: _484  and  _485
REMARK  203  A    between atoms: _490  and  _492
REMARK  204  A    between atoms: _492  and  _493
REMARK  205  A    between atoms: _492  and  _495
REMARK  206  A    between atoms: _498  and  _500
REMARK  207  A    between atoms: _500  and  _501
REMARK  208  A    between atoms: _500  and  _503
REMARK  209  A    between atoms: _503  and  _504
REMARK  210  A    between atoms: _509  and  _511
REMARK  211  A    between atoms: _511  and  _512
REMARK  212  A    between atoms: _511  and  _514
REMARK  213  A    between atoms: _514  and  _515
REMARK  214  A    between atoms: _518  and  _520
REMARK  215  A    between atoms: _520  and  _521
REMARK  216  A    between atoms: _520  and  _523
REMARK  217  A    between atoms: _523  and  _524
REMARK  218  A    between atoms: _527  and  _529
REMARK  219  A    between atoms: _529  and  _530
REMARK  220  A    between atoms: _532  and  _534
REMARK  221  A    between atoms: _534  and  _535
REMARK  222  A    between atoms: _534  and  _537
REMARK  223  A    between atoms: _537  and  _538
REMARK  224  A    between atoms: _538  and  _539
REMARK  225  A    between atoms: _539  and  _540
REMARK  226  A    between atoms: _549  and  _551
REMARK  227  A    between atoms: _551  and  _552
REMARK  228  A    between atoms: _551  and  _554
REMARK  229  A    between atoms: _554  and  _555
REMARK                            x       y       z     vdW  Elec       q    Type
REMARK                         _______ _______ _______ _____ _____    ______ ____
ROOT
ATOM      1  O   HOH     1      18.474  37.544  17.154  0.00  0.00    +0.000 OA
ENDROOT
TORSDOF 0
REMARK  Name = ../refined-set-2016/2avo/2avo_pocket.pdb
REMARK  229 active torsions:
REMARK  status: ('A' for Active; 'I' for Inactive)
REMARK    1  A    between atoms: _1  and  _3
REMARK    2  A    between atoms: _3  and  _4
REMARK    3  A    between atoms: _3  and  _6
REMARK    4  A    between atoms: _6  and  _7
REMARK    5  A    between atoms: _7  and  _8
REMARK    6  A    between atoms: _8  and  _9
REMARK    7  A    between atoms: _18  and  _20
REMARK    8  A    between atoms: _20  and  _21
REMARK    9  A    between atoms: _20  and  _23
REMARK   10  A    between atoms: _23  and  _24
REMARK   11  A    between atoms: _27  and  _29
REMARK   12  A    between atoms: _29  and  _30
REMARK   13  A    between atoms: _29  and  _32
REMARK   14  A    between atoms: _32  and  _33
REMARK   15  A    between atoms: _36  and  _38
REMARK   16  A    between atoms: _38  and  _39
REMARK   17  A    between atoms: _38  and  _41
REMARK   18  A    between atoms: _41  and  _42
REMARK   19  A    between atoms: _45  and  _47
REMARK   20  A    between atoms: _47  and  _48
REMARK   21  A    between atoms: _47  and  _50
REMARK   22  A    between atoms: _50  and  _51
REMARK   23  A    between atoms: _54  and  _56
REMARK   24  A    between atoms: _56  and  _57
REMARK   25  A    between atoms: _56  and  _59
REMARK   26  A    between atoms: _59  and  _60
REMARK   27  A    between atoms: _63  and  _65
REMARK   28  A    between atoms: _65  and  _66
REMARK   29  A    between atoms: _68  and  _70
REMARK   30  A    between atoms: _70  and  _71
REMARK   31  A    between atoms: _74  and  _76
REMARK   32  A    between atoms: _76  and  _77
REMARK   33  A    between atoms: _76  and  _79
REMARK   34  A    between atoms: _79  and  _80
REMARK   35  A    between atoms: _83  and  _85
REMARK   36  A    between atoms: _85  and  _86
REMARK   37  A    between atoms: _85  and  _88
REMARK   38  A    between atoms: _88  and  _89
REMARK   39  A    between atoms: _92  and  _94
REMARK   40  A    between atoms: _94  and  _95
REMARK   41  A    between atoms: _94  and  _97
REMARK   42  A    between atoms: _97  and  _98
REMARK   43  A    between atoms: _101  and  _103
REMARK   44  A    between atoms: _103  and  _104
REMARK   45  A    between atoms: _103  and  _106
REMARK   46  A    between atoms: _109  and  _111
REMARK   47  A    between atoms: _111  and  _112
REMARK   48  A    between atoms: _111  and  _114
REMARK   49  A    between atoms: _114  and  _115
REMARK   50  A    between atoms: _115  and  _116
REMARK   51  A    between atoms: _118  and  _120
REMARK   52  A    between atoms: _120  and  _121
REMARK   53  A    between atoms: _120  and  _123
REMARK   54  A    between atoms: _123  and  _124
REMARK   55  A    between atoms: _127  and  _129
REMARK   56  A    between atoms: _129  and  _130
REMARK   57  A    between atoms: _132  and  _134
REMARK   58  A    between atoms: _134  and  _135
REMARK   59  A    between atoms: _137  and  _139
REMARK   60  A    between atoms: _139  and  _140
REMARK   61  A    between atoms: _139  and  _142
REMARK   62  A    between atoms: _142  and  _143
REMARK   63  A    between atoms: _146  and  _148
REMARK   64  A    between atoms: _148  and  _149
REMARK   65  A    between atoms: _151  and  _153
REMARK   66  A    between atoms: _153  and  _154
REMARK   67  A    between atoms: _156  and  _158
REMARK   68  A    between atoms: _158  and  _159
REMARK   69  A    between atoms: _158  and  _161
REMARK   70  A    between atoms: _161  and  _162
REMARK   71  A    between atoms: _168  and  _170
REMARK   72  A    between atoms: _170  and  _171
REMARK   73  A    between atoms: _170  and  _173
REMARK   74  A    between atoms: _173  and  _174
REMARK   75  A    between atoms: _177  and  _179
REMARK   76  A    between atoms: _179  and  _180
REMARK   77  A    between atoms: _179  and  _182
REMARK   78  A    between atoms: _185  and  _187
REMARK   79  A    between atoms: _187  and  _188
REMARK   80  A    between atoms: _187  and  _190
REMARK   81  A    between atoms: _190  and  _191
REMARK   82  A    between atoms: _194  and  _196
REMARK   83  A    between atoms: _196  and  _197
REMARK   84  A    between atoms: _196  and  _199
REMARK   85  A    between atoms: _199  and  _200
REMARK   86  A    between atoms: _204  and  _205
REMARK   87  A    between atoms: _210  and  _212
REMARK   88  A    between atoms: _212  and  _213
REMARK   89  A    between atoms: _212  and  _215
REMARK   90  A    between atoms: _218  and  _220
REMARK   91  A    between atoms: _220  and  _221
REMARK   92  A    between atoms: _220  and  _223
REMARK   93  A    between atoms: _223  and  _224
REMARK   94  A    between atoms: _229  and  _231
REMARK   95  A    between atoms: _231  and  _232
REMARK   96  A    between atoms: _231  and  _234
REMARK   97  A    between atoms: _234  and  _235
REMARK   98  A    between atoms: _238  and  _240
REMARK   99  A    between atoms: _240  and  _241
REMARK  100  A    between atoms: _240  and  _243
REMARK  101  A    between atoms: _243  and  _244
REMARK  102  A    between atoms: _247  and  _249
REMARK  103  A    between atoms: _249  and  _250
REMARK  104  A    between atoms: _252  and  _254
REMARK  105  A    between atoms: _254  and  _255
REMARK  106  A    between atoms: _254  and  _257
REMARK  107  A    between atoms: _257  and  _258
REMARK  108  A    between atoms: _258  and  _259
REMARK  109  A    between atoms: _259  and  _260
REMARK  110  A    between atoms: _269  and  _271
REMARK  111  A    between atoms: _271  and  _272
REMARK  112  A    between atoms: _271  and  _274
REMARK  113  A    between atoms: _274  and  _275
REMARK  114  A    between atoms: _280  and  _282
REMARK  115  A    between atoms: _282  and  _283
REMARK  116  A    between atoms: _282  and  _285
REMARK  117  A    between atoms: _285  and  _286
REMARK  118  A    between atoms: _286  and  _287
REMARK  119  A    between atoms: _287  and  _288
REMARK  120  A    between atoms: _297  and  _299
REMARK  121  A    between atoms: _299  and  _300
REMARK  122  A    between atoms: _299  and  _302
REMARK  123  A    between atoms: _302  and  _303
REMARK  124  A    between atoms: _306  and  _308
REMARK  125  A    between atoms: _308  and  _309
REMARK  126  A    between atoms: _308  and  _311
REMARK  127  A    between atoms: _311  and  _312
REMARK  128  A    between atoms: _315  and  _317
REMARK  129  A    between atoms: _317  and  _318
REMARK  130  A    between atoms: _317  and  _320
REMARK  131  A    between atoms: _320  and  _321
REMARK  132  A    between atoms: _324  and  _326
REMARK  133  A    between atoms: _326  and  _327
REMARK  134  A    between atoms: _326  and  _329
REMARK  135  A    between atoms: _329  and  _330
REMARK  136  A    between atoms: _333  and  _335
REMARK  137  A    between atoms: _335  and  _336
REMARK  138  A    between atoms: _338  and  _340
REMARK  139  A    between atoms: _340  and  _341
REMARK  140  A    between atoms: _344  and  _346
REMARK  141  A    between atoms: _346  and  _347
REMARK  142  A    between atoms: _346  and  _349
REMARK  143  A    between atoms: _349  and  _350
REMARK  144  A    between atoms: _353  and  _355
REMARK  145  A    between atoms: _355  and  _356
REMARK  146  A    between atoms: _355  and  _358
REMARK  147  A    between atoms: _358  and  _359
REMARK  148  A    between atoms: _362  and  _364
REMARK  149  A    between atoms: _364  and  _365
REMARK  150  A    between atoms: _364  and  _367
REMARK  151  A    between atoms: _367  and  _368
REMARK  152  A    between atoms: _371  and  _373
REMARK  153  A    between atoms: _373  and  _374
REMARK  154  A    between atoms: _373  and  _376
REMARK  155  A    between atoms: _379  and  _381
REMARK  156  A    between atoms: _381  and  _382
REMARK  157  A    between atoms: _381  and  _384
REMARK  158  A    between atoms: _384  and  _385
REMARK  159  A    between atoms: _388  and  _390
REMARK  160  A    between atoms: _390  and  _391
REMARK  161  A    between atoms: _390  and  _393
REMARK  162  A    between atoms: _393  and  _394
REMARK  163  A    between atoms: _394  and  _395
REMARK  164  A    between atoms: _395  and  _396
REMARK  165  A    between atoms: _396  and  _397
REMARK  166  A    between atoms: _401  and  _403
REMARK  167  A    between atoms: _403  and  _404
REMARK  168  A    between atoms: _403  and  _406
REMARK  169  A    between atoms: _406  and  _407
REMARK  170  A    between atoms: _407  and  _408
REMARK  171  A    between atoms: _410  and  _412
REMARK  172  A    between atoms: _412  and  _413
REMARK  173  A    between atoms: _412  and  _415
REMARK  174  A    between atoms: _415  and  _416
REMARK  175  A    between atoms: _419  and  _421
REMARK  176  A    between atoms: _421  and  _422
REMARK  177  A    between atoms: _424  and  _426
REMARK  178  A    between atoms: _426  and  _427
REMARK  179  A    between atoms: _429  and  _431
REMARK  180  A    between atoms: _431  and  _432
REMARK  181  A    between atoms: _431  and  _434
REMARK  182  A    between atoms: _434  and  _435
REMARK  183  A    between atoms: _438  and  _440
REMARK  184  A    between atoms: _440  and  _441
REMARK  185  A    between atoms: _443  and  _445
REMARK  186  A    between atoms: _445  and  _446
REMARK  187  A    between atoms: _448  and  _450
REMARK  188  A    between atoms: _450  and  _451
REMARK  189  A    between atoms: _450  and  _453
REMARK  190  A    between atoms: _453  and  _454
REMARK  191  A    between atoms: _457  and  _459
REMARK  192  A    between atoms: _459  and  _460
REMARK  193  A    between atoms: _459  and  _462
REMARK  194  A    between atoms: _465  and  _467
REMARK  195  A    between atoms: _467  and  _468
REMARK  196  A    between atoms: _467  and  _470
REMARK  197  A    between atoms: _470  and  _471
REMARK  198  A    between atoms: _474  and  _476
REMARK  199  A    between atoms: _476  and  _477
REMARK  200  A    between atoms: _476  and  _479
REMARK  201  A    between atoms: _479  and  _480
REMARK  202  A    between atoms: _484  and  _485
REMARK  203  A    between atoms: _490  and  _492
REMARK  204  A    between atoms: _492  and  _493
REMARK  205  A    between atoms: _492  and  _495
REMARK  206  A    between atoms: _498  and  _500
REMARK  207  A    between atoms: _500  and  _501
REMARK  208  A    between atoms: _500  and  _503
REMARK  209  A    between atoms: _503  and  _504
REMARK  210  A    between atoms: _509  and  _511
REMARK  211  A    between atoms: _511  and  _512
REMARK  212  A    between atoms: _511  and  _514
REMARK  213  A    between atoms: _514  and  _515
REMARK  214  A    between atoms: _518  and  _520
REMARK  215  A    between atoms: _520  and  _521
REMARK  216  A    between atoms: _520  and  _523
REMARK  217  A    between atoms: _523  and  _524
REMARK  218  A    between atoms: _527  and  _529
REMARK  219  A    between atoms: _529  and  _530
REMARK  220  A    between atoms: _532  and  _534
REMARK  221  A    between atoms: _534  and  _535
REMARK  222  A    between atoms: _534  and  _537
REMARK  223  A    between atoms: _537  and  _538
REMARK  224  A    between atoms: _538  and  _539
REMARK  225  A    between atoms: _539  and  _540
REMARK  226  A    between atoms: _549  and  _551
REMARK  227  A    between atoms: _551  and  _552
REMARK  228  A    between atoms: _551  and  _554
REMARK  229  A    between atoms: _554  and  _555
REMARK                            x       y       z     vdW  Elec       q    Type
REMARK                         _______ _______ _______ _____ _____    ______ ____
ROOT
ATOM      1  O   HOH     1      11.067  37.102  22.811  0.00  0.00    +0.000 OA
ENDROOT
TORSDOF 0
REMARK  Name = ../refined-set-2016/2avo/2avo_pocket.pdb
REMARK  229 active torsions:
REMARK  status: ('A' for Active; 'I' for Inactive)
REMARK    1  A    between atoms: _1  and  _3
REMARK    2  A    between atoms: _3  and  _4
REMARK    3  A    between atoms: _3  and  _6
REMARK    4  A    between atoms: _6  and  _7
REMARK    5  A    between atoms: _7  and  _8
REMARK    6  A    between atoms: _8  and  _9
REMARK    7  A    between atoms: _18  and  _20
REMARK    8  A    between atoms: _20  and  _21
REMARK    9  A    between atoms: _20  and  _23
REMARK   10  A    between atoms: _23  and  _24
REMARK   11  A    between atoms: _27  and  _29
REMARK   12  A    between atoms: _29  and  _30
REMARK   13  A    between atoms: _29  and  _32
REMARK   14  A    between atoms: _32  and  _33
REMARK   15  A    between atoms: _36  and  _38
REMARK   16  A    between atoms: _38  and  _39
REMARK   17  A    between atoms: _38  and  _41
REMARK   18  A    between atoms: _41  and  _42
REMARK   19  A    between atoms: _45  and  _47
REMARK   20  A    between atoms: _47  and  _48
REMARK   21  A    between atoms: _47  and  _50
REMARK   22  A    between atoms: _50  and  _51
REMARK   23  A    between atoms: _54  and  _56
REMARK   24  A    between atoms: _56  and  _57
REMARK   25  A    between atoms: _56  and  _59
REMARK   26  A    between atoms: _59  and  _60
REMARK   27  A    between atoms: _63  and  _65
REMARK   28  A    between atoms: _65  and  _66
REMARK   29  A    between atoms: _68  and  _70
REMARK   30  A    between atoms: _70  and  _71
REMARK   31  A    between atoms: _74  and  _76
REMARK   32  A    between atoms: _76  and  _77
REMARK   33  A    between atoms: _76  and  _79
REMARK   34  A    between atoms: _79  and  _80
REMARK   35  A    between atoms: _83  and  _85
REMARK   36  A    between atoms: _85  and  _86
REMARK   37  A    between atoms: _85  and  _88
REMARK   38  A    between atoms: _88  and  _89
REMARK   39  A    between atoms: _92  and  _94
REMARK   40  A    between atoms: _94  and  _95
REMARK   41  A    between atoms: _94  and  _97
REMARK   42  A    between atoms: _97  and  _98
REMARK   43  A    between atoms: _101  and  _103
REMARK   44  A    between atoms: _103  and  _104
REMARK   45  A    between atoms: _103  and  _106
REMARK   46  A    between atoms: _109  and  _111
REMARK   47  A    between atoms: _111  and  _112
REMARK   48  A    between atoms: _111  and  _114
REMARK   49  A    between atoms: _114  and  _115
REMARK   50  A    between atoms: _115  and  _116
REMARK   51  A    between atoms: _118  and  _120
REMARK   52  A    between atoms: _120  and  _121
REMARK   53  A    between atoms: _120  and  _123
REMARK   54  A    between atoms: _123  and  _124
REMARK   55  A    between atoms: _127  and  _129
REMARK   56  A    between atoms: _129  and  _130
REMARK   57  A    between atoms: _132  and  _134
REMARK   58  A    between atoms: _134  and  _135
REMARK   59  A    between atoms: _137  and  _139
REMARK   60  A    between atoms: _139  and  _140
REMARK   61  A    between atoms: _139  and  _142
REMARK   62  A    between atoms: _142  and  _143
REMARK   63  A    between atoms: _146  and  _148
REMARK   64  A    between atoms: _148  and  _149
REMARK   65  A    between atoms: _151  and  _153
REMARK   66  A    between atoms: _153  and  _154
REMARK   67  A    between atoms: _156  and  _158
REMARK   68  A    between atoms: _158  and  _159
REMARK   69  A    between atoms: _158  and  _161
REMARK   70  A    between atoms: _161  and  _162
REMARK   71  A    between atoms: _168  and  _170
REMARK   72  A    between atoms: _170  and  _171
REMARK   73  A    between atoms: _170  and  _173
REMARK   74  A    between atoms: _173  and  _174
REMARK   75  A    between atoms: _177  and  _179
REMARK   76  A    between atoms: _179  and  _180
REMARK   77  A    between atoms: _179  and  _182
REMARK   78  A    between atoms: _185  and  _187
REMARK   79  A    between atoms: _187  and  _188
REMARK   80  A    between atoms: _187  and  _190
REMARK   81  A    between atoms: _190  and  _191
REMARK   82  A    between atoms: _194  and  _196
REMARK   83  A    between atoms: _196  and  _197
REMARK   84  A    between atoms: _196  and  _199
REMARK   85  A    between atoms: _199  and  _200
REMARK   86  A    between atoms: _204  and  _205
REMARK   87  A    between atoms: _210  and  _212
REMARK   88  A    between atoms: _212  and  _213
REMARK   89  A    between atoms: _212  and  _215
REMARK   90  A    between atoms: _218  and  _220
REMARK   91  A    between atoms: _220  and  _221
REMARK   92  A    between atoms: _220  and  _223
REMARK   93  A    between atoms: _223  and  _224
REMARK   94  A    between atoms: _229  and  _231
REMARK   95  A    between atoms: _231  and  _232
REMARK   96  A    between atoms: _231  and  _234
REMARK   97  A    between atoms: _234  and  _235
REMARK   98  A    between atoms: _238  and  _240
REMARK   99  A    between atoms: _240  and  _241
REMARK  100  A    between atoms: _240  and  _243
REMARK  101  A    between atoms: _243  and  _244
REMARK  102  A    between atoms: _247  and  _249
REMARK  103  A    between atoms: _249  and  _250
REMARK  104  A    between atoms: _252  and  _254
REMARK  105  A    between atoms: _254  and  _255
REMARK  106  A    between atoms: _254  and  _257
REMARK  107  A    between atoms: _257  and  _258
REMARK  108  A    between atoms: _258  and  _259
REMARK  109  A    between atoms: _259  and  _260
REMARK  110  A    between atoms: _269  and  _271
REMARK  111  A    between atoms: _271  and  _272
REMARK  112  A    between atoms: _271  and  _274
REMARK  113  A    between atoms: _274  and  _275
REMARK  114  A    between atoms: _280  and  _282
REMARK  115  A    between atoms: _282  and  _283
REMARK  116  A    between atoms: _282  and  _285
REMARK  117  A    between atoms: _285  and  _286
REMARK  118  A    between atoms: _286  and  _287
REMARK  119  A    between atoms: _287  and  _288
REMARK  120  A    between atoms: _297  and  _299
REMARK  121  A    between atoms: _299  and  _300
REMARK  122  A    between atoms: _299  and  _302
REMARK  123  A    between atoms: _302  and  _303
REMARK  124  A    between atoms: _306  and  _308
REMARK  125  A    between atoms: _308  and  _309
REMARK  126  A    between atoms: _308  and  _311
REMARK  127  A    between atoms: _311  and  _312
REMARK  128  A    between atoms: _315  and  _317
REMARK  129  A    between atoms: _317  and  _318
REMARK  130  A    between atoms: _317  and  _320
REMARK  131  A    between atoms: _320  and  _321
REMARK  132  A    between atoms: _324  and  _326
REMARK  133  A    between atoms: _326  and  _327
REMARK  134  A    between atoms: _326  and  _329
REMARK  135  A    between atoms: _329  and  _330
REMARK  136  A    between atoms: _333  and  _335
REMARK  137  A    between atoms: _335  and  _336
REMARK  138  A    between atoms: _338  and  _340
REMARK  139  A    between atoms: _340  and  _341
REMARK  140  A    between atoms: _344  and  _346
REMARK  141  A    between atoms: _346  and  _347
REMARK  142  A    between atoms: _346  and  _349
REMARK  143  A    between atoms: _349  and  _350
REMARK  144  A    between atoms: _353  and  _355
REMARK  145  A    between atoms: _355  and  _356
REMARK  146  A    between atoms: _355  and  _358
REMARK  147  A    between atoms: _358  and  _359
REMARK  148  A    between atoms: _362  and  _364
REMARK  149  A    between atoms: _364  and  _365
REMARK  150  A    between atoms: _364  and  _367
REMARK  151  A    between atoms: _367  and  _368
REMARK  152  A    between atoms: _371  and  _373
REMARK  153  A    between atoms: _373  and  _374
REMARK  154  A    between atoms: _373  and  _376
REMARK  155  A    between atoms: _379  and  _381
REMARK  156  A    between atoms: _381  and  _382
REMARK  157  A    between atoms: _381  and  _384
REMARK  158  A    between atoms: _384  and  _385
REMARK  159  A    between atoms: _388  and  _390
REMARK  160  A    between atoms: _390  and  _391
REMARK  161  A    between atoms: _390  and  _393
REMARK  162  A    between atoms: _393  and  _394
REMARK  163  A    between atoms: _394  and  _395
REMARK  164  A    between atoms: _395  and  _396
REMARK  165  A    between atoms: _396  and  _397
REMARK  166  A    between atoms: _401  and  _403
REMARK  167  A    between atoms: _403  and  _404
REMARK  168  A    between atoms: _403  and  _406
REMARK  169  A    between atoms: _406  and  _407
REMARK  170  A    between atoms: _407  and  _408
REMARK  171  A    between atoms: _410  and  _412
REMARK  172  A    between atoms: _412  and  _413
REMARK  173  A    between atoms: _412  and  _415
REMARK  174  A    between atoms: _415  and  _416
REMARK  175  A    between atoms: _419  and  _421
REMARK  176  A    between atoms: _421  and  _422
REMARK  177  A    between atoms: _424  and  _426
REMARK  178  A    between atoms: _426  and  _427
REMARK  179  A    between atoms: _429  and  _431
REMARK  180  A    between atoms: _431  and  _432
REMARK  181  A    between atoms: _431  and  _434
REMARK  182  A    between atoms: _434  and  _435
REMARK  183  A    between atoms: _438  and  _440
REMARK  184  A    between atoms: _440  and  _441
REMARK  185  A    between atoms: _443  and  _445
REMARK  186  A    between atoms: _445  and  _446
REMARK  187  A    between atoms: _448  and  _450
REMARK  188  A    between atoms: _450  and  _451
REMARK  189  A    between atoms: _450  and  _453
REMARK  190  A    between atoms: _453  and  _454
REMARK  191  A    between atoms: _457  and  _459
REMARK  192  A    between atoms: _459  and  _460
REMARK  193  A    between atoms: _459  and  _462
REMARK  194  A    between atoms: _465  and  _467
REMARK  195  A    between atoms: _467  and  _468
REMARK  196  A    between atoms: _467  and  _470
REMARK  197  A    between atoms: _470  and  _471
REMARK  198  A    between atoms: _474  and  _476
REMARK  199  A    between atoms: _476  and  _477
REMARK  200  A    between atoms: _476  and  _479
REMARK  201  A    between atoms: _479  and  _480
REMARK  202  A    between atoms: _484  and  _485
REMARK  203  A    between atoms: _490  and  _492
REMARK  204  A    between atoms: _492  and  _493
REMARK  205  A    between atoms: _492  and  _495
REMARK  206  A    between atoms: _498  and  _500
REMARK  207  A    between atoms: _500  and  _501
REMARK  208  A    between atoms: _500  and  _503
REMARK  209  A    between atoms: _503  and  _504
REMARK  210  A    between atoms: _509  and  _511
REMARK  211  A    between atoms: _511  and  _512
REMARK  212  A    between atoms: _511  and  _514
REMARK  213  A    between atoms: _514  and  _515
REMARK  214  A    between atoms: _518  and  _520
REMARK  215  A    between atoms: _520  and  _521
REMARK  216  A    between atoms: _520  and  _523
REMARK  217  A    between atoms: _523  and  _524
REMARK  218  A    between atoms: _527  and  _529
REMARK  219  A    between atoms: _529  and  _530
REMARK  220  A    between atoms: _532  and  _534
REMARK  221  A    between atoms: _534  and  _535
REMARK  222  A    between atoms: _534  and  _537
REMARK  223  A    between atoms: _537  and  _538
REMARK  224  A    between atoms: _538  and  _539
REMARK  225  A    between atoms: _539  and  _540
REMARK  226  A    between atoms: _549  and  _551
REMARK  227  A    between atoms: _551  and  _552
REMARK  228  A    between atoms: _551  and  _554
REMARK  229  A    between atoms: _554  and  _555
REMARK                            x       y       z     vdW  Elec       q    Type
REMARK                         _______ _______ _______ _____ _____    ______ ____
ROOT
ATOM      1  O   HOH     1      20.365  44.174  16.422  0.00  0.00    +0.000 OA
ENDROOT
TORSDOF 0
REMARK  Name = ../refined-set-2016/2avo/2avo_pocket.pdb
REMARK  229 active torsions:
REMARK  status: ('A' for Active; 'I' for Inactive)
REMARK    1  A    between atoms: _1  and  _3
REMARK    2  A    between atoms: _3  and  _4
REMARK    3  A    between atoms: _3  and  _6
REMARK    4  A    between atoms: _6  and  _7
REMARK    5  A    between atoms: _7  and  _8
REMARK    6  A    between atoms: _8  and  _9
REMARK    7  A    between atoms: _18  and  _20
REMARK    8  A    between atoms: _20  and  _21
REMARK    9  A    between atoms: _20  and  _23
REMARK   10  A    between atoms: _23  and  _24
REMARK   11  A    between atoms: _27  and  _29
REMARK   12  A    between atoms: _29  and  _30
REMARK   13  A    between atoms: _29  and  _32
REMARK   14  A    between atoms: _32  and  _33
REMARK   15  A    between atoms: _36  and  _38
REMARK   16  A    between atoms: _38  and  _39
REMARK   17  A    between atoms: _38  and  _41
REMARK   18  A    between atoms: _41  and  _42
REMARK   19  A    between atoms: _45  and  _47
REMARK   20  A    between atoms: _47  and  _48
REMARK   21  A    between atoms: _47  and  _50
REMARK   22  A    between atoms: _50  and  _51
REMARK   23  A    between atoms: _54  and  _56
REMARK   24  A    between atoms: _56  and  _57
REMARK   25  A    between atoms: _56  and  _59
REMARK   26  A    between atoms: _59  and  _60
REMARK   27  A    between atoms: _63  and  _65
REMARK   28  A    between atoms: _65  and  _66
REMARK   29  A    between atoms: _68  and  _70
REMARK   30  A    between atoms: _70  and  _71
REMARK   31  A    between atoms: _74  and  _76
REMARK   32  A    between atoms: _76  and  _77
REMARK   33  A    between atoms: _76  and  _79
REMARK   34  A    between atoms: _79  and  _80
REMARK   35  A    between atoms: _83  and  _85
REMARK   36  A    between atoms: _85  and  _86
REMARK   37  A    between atoms: _85  and  _88
REMARK   38  A    between atoms: _88  and  _89
REMARK   39  A    between atoms: _92  and  _94
REMARK   40  A    between atoms: _94  and  _95
REMARK   41  A    between atoms: _94  and  _97
REMARK   42  A    between atoms: _97  and  _98
REMARK   43  A    between atoms: _101  and  _103
REMARK   44  A    between atoms: _103  and  _104
REMARK   45  A    between atoms: _103  and  _106
REMARK   46  A    between atoms: _109  and  _111
REMARK   47  A    between atoms: _111  and  _112
REMARK   48  A    between atoms: _111  and  _114
REMARK   49  A    between atoms: _114  and  _115
REMARK   50  A    between atoms: _115  and  _116
REMARK   51  A    between atoms: _118  and  _120
REMARK   52  A    between atoms: _120  and  _121
REMARK   53  A    between atoms: _120  and  _123
REMARK   54  A    between atoms: _123  and  _124
REMARK   55  A    between atoms: _127  and  _129
REMARK   56  A    between atoms: _129  and  _130
REMARK   57  A    between atoms: _132  and  _134
REMARK   58  A    between atoms: _134  and  _135
REMARK   59  A    between atoms: _137  and  _139
REMARK   60  A    between atoms: _139  and  _140
REMARK   61  A    between atoms: _139  and  _142
REMARK   62  A    between atoms: _142  and  _143
REMARK   63  A    between atoms: _146  and  _148
REMARK   64  A    between atoms: _148  and  _149
REMARK   65  A    between atoms: _151  and  _153
REMARK   66  A    between atoms: _153  and  _154
REMARK   67  A    between atoms: _156  and  _158
REMARK   68  A    between atoms: _158  and  _159
REMARK   69  A    between atoms: _158  and  _161
REMARK   70  A    between atoms: _161  and  _162
REMARK   71  A    between atoms: _168  and  _170
REMARK   72  A    between atoms: _170  and  _171
REMARK   73  A    between atoms: _170  and  _173
REMARK   74  A    between atoms: _173  and  _174
REMARK   75  A    between atoms: _177  and  _179
REMARK   76  A    between atoms: _179  and  _180
REMARK   77  A    between atoms: _179  and  _182
REMARK   78  A    between atoms: _185  and  _187
REMARK   79  A    between atoms: _187  and  _188
REMARK   80  A    between atoms: _187  and  _190
REMARK   81  A    between atoms: _190  and  _191
REMARK   82  A    between atoms: _194  and  _196
REMARK   83  A    between atoms: _196  and  _197
REMARK   84  A    between atoms: _196  and  _199
REMARK   85  A    between atoms: _199  and  _200
REMARK   86  A    between atoms: _204  and  _205
REMARK   87  A    between atoms: _210  and  _212
REMARK   88  A    between atoms: _212  and  _213
REMARK   89  A    between atoms: _212  and  _215
REMARK   90  A    between atoms: _218  and  _220
REMARK   91  A    between atoms: _220  and  _221
REMARK   92  A    between atoms: _220  and  _223
REMARK   93  A    between atoms: _223  and  _224
REMARK   94  A    between atoms: _229  and  _231
REMARK   95  A    between atoms: _231  and  _232
REMARK   96  A    between atoms: _231  and  _234
REMARK   97  A    between atoms: _234  and  _235
REMARK   98  A    between atoms: _238  and  _240
REMARK   99  A    between atoms: _240  and  _241
REMARK  100  A    between atoms: _240  and  _243
REMARK  101  A    between atoms: _243  and  _244
REMARK  102  A    between atoms: _247  and  _249
REMARK  103  A    between atoms: _249  and  _250
REMARK  104  A    between atoms: _252  and  _254
REMARK  105  A    between atoms: _254  and  _255
REMARK  106  A    between atoms: _254  and  _257
REMARK  107  A    between atoms: _257  and  _258
REMARK  108  A    between atoms: _258  and  _259
REMARK  109  A    between atoms: _259  and  _260
REMARK  110  A    between atoms: _269  and  _271
REMARK  111  A    between atoms: _271  and  _272
REMARK  112  A    between atoms: _271  and  _274
REMARK  113  A    between atoms: _274  and  _275
REMARK  114  A    between atoms: _280  and  _282
REMARK  115  A    between atoms: _282  and  _283
REMARK  116  A    between atoms: _282  and  _285
REMARK  117  A    between atoms: _285  and  _286
REMARK  118  A    between atoms: _286  and  _287
REMARK  119  A    between atoms: _287  and  _288
REMARK  120  A    between atoms: _297  and  _299
REMARK  121  A    between atoms: _299  and  _300
REMARK  122  A    between atoms: _299  and  _302
REMARK  123  A    between atoms: _302  and  _303
REMARK  124  A    between atoms: _306  and  _308
REMARK  125  A    between atoms: _308  and  _309
REMARK  126  A    between atoms: _308  and  _311
REMARK  127  A    between atoms: _311  and  _312
REMARK  128  A    between atoms: _315  and  _317
REMARK  129  A    between atoms: _317  and  _318
REMARK  130  A    between atoms: _317  and  _320
REMARK  131  A    between atoms: _320  and  _321
REMARK  132  A    between atoms: _324  and  _326
REMARK  133  A    between atoms: _326  and  _327
REMARK  134  A    between atoms: _326  and  _329
REMARK  135  A    between atoms: _329  and  _330
REMARK  136  A    between atoms: _333  and  _335
REMARK  137  A    between atoms: _335  and  _336
REMARK  138  A    between atoms: _338  and  _340
REMARK  139  A    between atoms: _340  and  _341
REMARK  140  A    between atoms: _344  and  _346
REMARK  141  A    between atoms: _346  and  _347
REMARK  142  A    between atoms: _346  and  _349
REMARK  143  A    between atoms: _349  and  _350
REMARK  144  A    between atoms: _353  and  _355
REMARK  145  A    between atoms: _355  and  _356
REMARK  146  A    between atoms: _355  and  _358
REMARK  147  A    between atoms: _358  and  _359
REMARK  148  A    between atoms: _362  and  _364
REMARK  149  A    between atoms: _364  and  _365
REMARK  150  A    between atoms: _364  and  _367
REMARK  151  A    between atoms: _367  and  _368
REMARK  152  A    between atoms: _371  and  _373
REMARK  153  A    between atoms: _373  and  _374
REMARK  154  A    between atoms: _373  and  _376
REMARK  155  A    between atoms: _379  and  _381
REMARK  156  A    between atoms: _381  and  _382
REMARK  157  A    between atoms: _381  and  _384
REMARK  158  A    between atoms: _384  and  _385
REMARK  159  A    between atoms: _388  and  _390
REMARK  160  A    between atoms: _390  and  _391
REMARK  161  A    between atoms: _390  and  _393
REMARK  162  A    between atoms: _393  and  _394
REMARK  163  A    between atoms: _394  and  _395
REMARK  164  A    between atoms: _395  and  _396
REMARK  165  A    between atoms: _396  and  _397
REMARK  166  A    between atoms: _401  and  _403
REMARK  167  A    between atoms: _403  and  _404
REMARK  168  A    between atoms: _403  and  _406
REMARK  169  A    between atoms: _406  and  _407
REMARK  170  A    between atoms: _407  and  _408
REMARK  171  A    between atoms: _410  and  _412
REMARK  172  A    between atoms: _412  and  _413
REMARK  173  A    between atoms: _412  and  _415
REMARK  174  A    between atoms: _415  and  _416
REMARK  175  A    between atoms: _419  and  _421
REMARK  176  A    between atoms: _421  and  _422
REMARK  177  A    between atoms: _424  and  _426
REMARK  178  A    between atoms: _426  and  _427
REMARK  179  A    between atoms: _429  and  _431
REMARK  180  A    between atoms: _431  and  _432
REMARK  181  A    between atoms: _431  and  _434
REMARK  182  A    between atoms: _434  and  _435
REMARK  183  A    between atoms: _438  and  _440
REMARK  184  A    between atoms: _440  and  _441
REMARK  185  A    between atoms: _443  and  _445
REMARK  186  A    between atoms: _445  and  _446
REMARK  187  A    between atoms: _448  and  _450
REMARK  188  A    between atoms: _450  and  _451
REMARK  189  A    between atoms: _450  and  _453
REMARK  190  A    between atoms: _453  and  _454
REMARK  191  A    between atoms: _457  and  _459
REMARK  192  A    between atoms: _459  and  _460
REMARK  193  A    between atoms: _459  and  _462
REMARK  194  A    between atoms: _465  and  _467
REMARK  195  A    between atoms: _467  and  _468
REMARK  196  A    between atoms: _467  and  _470
REMARK  197  A    between atoms: _470  and  _471
REMARK  198  A    between atoms: _474  and  _476
REMARK  199  A    between atoms: _476  and  _477
REMARK  200  A    between atoms: _476  and  _479
REMARK  201  A    between atoms: _479  and  _480
REMARK  202  A    between atoms: _484  and  _485
REMARK  203  A    between atoms: _490  and  _492
REMARK  204  A    between atoms: _492  and  _493
REMARK  205  A    between atoms: _492  and  _495
REMARK  206  A    between atoms: _498  and  _500
REMARK  207  A    between atoms: _500  and  _501
REMARK  208  A    between atoms: _500  and  _503
REMARK  209  A    between atoms: _503  and  _504
REMARK  210  A    between atoms: _509  and  _511
REMARK  211  A    between atoms: _511  and  _512
REMARK  212  A    between atoms: _511  and  _514
REMARK  213  A    between atoms: _514  and  _515
REMARK  214  A    between atoms: _518  and  _520
REMARK  215  A    between atoms: _520  and  _521
REMARK  216  A    between atoms: _520  and  _523
REMARK  217  A    between atoms: _523  and  _524
REMARK  218  A    between atoms: _527  and  _529
REMARK  219  A    between atoms: _529  and  _530
REMARK  220  A    between atoms: _532  and  _534
REMARK  221  A    between atoms: _534  and  _535
REMARK  222  A    between atoms: _534  and  _537
REMARK  223  A    between atoms: _537  and  _538
REMARK  224  A    between atoms: _538  and  _539
REMARK  225  A    between atoms: _539  and  _540
REMARK  226  A    between atoms: _549  and  _551
REMARK  227  A    between atoms: _551  and  _552
REMARK  228  A    between atoms: _551  and  _554
REMARK  229  A    between atoms: _554  and  _555
REMARK                            x       y       z     vdW  Elec       q    Type
REMARK                         _______ _______ _______ _____ _____    ______ ____
ROOT
ATOM      1  O   HOH     1      17.487  40.489  16.334  0.00  0.00    +0.000 OA
ENDROOT
TORSDOF 0
REMARK  Name = ../refined-set-2016/2avo/2avo_pocket.pdb
REMARK  229 active torsions:
REMARK  status: ('A' for Active; 'I' for Inactive)
REMARK    1  A    between atoms: _1  and  _3
REMARK    2  A    between atoms: _3  and  _4
REMARK    3  A    between atoms: _3  and  _6
REMARK    4  A    between atoms: _6  and  _7
REMARK    5  A    between atoms: _7  and  _8
REMARK    6  A    between atoms: _8  and  _9
REMARK    7  A    between atoms: _18  and  _20
REMARK    8  A    between atoms: _20  and  _21
REMARK    9  A    between atoms: _20  and  _23
REMARK   10  A    between atoms: _23  and  _24
REMARK   11  A    between atoms: _27  and  _29
REMARK   12  A    between atoms: _29  and  _30
REMARK   13  A    between atoms: _29  and  _32
REMARK   14  A    between atoms: _32  and  _33
REMARK   15  A    between atoms: _36  and  _38
REMARK   16  A    between atoms: _38  and  _39
REMARK   17  A    between atoms: _38  and  _41
REMARK   18  A    between atoms: _41  and  _42
REMARK   19  A    between atoms: _45  and  _47
REMARK   20  A    between atoms: _47  and  _48
REMARK   21  A    between atoms: _47  and  _50
REMARK   22  A    between atoms: _50  and  _51
REMARK   23  A    between atoms: _54  and  _56
REMARK   24  A    between atoms: _56  and  _57
REMARK   25  A    between atoms: _56  and  _59
REMARK   26  A    between atoms: _59  and  _60
REMARK   27  A    between atoms: _63  and  _65
REMARK   28  A    between atoms: _65  and  _66
REMARK   29  A    between atoms: _68  and  _70
REMARK   30  A    between atoms: _70  and  _71
REMARK   31  A    between atoms: _74  and  _76
REMARK   32  A    between atoms: _76  and  _77
REMARK   33  A    between atoms: _76  and  _79
REMARK   34  A    between atoms: _79  and  _80
REMARK   35  A    between atoms: _83  and  _85
REMARK   36  A    between atoms: _85  and  _86
REMARK   37  A    between atoms: _85  and  _88
REMARK   38  A    between atoms: _88  and  _89
REMARK   39  A    between atoms: _92  and  _94
REMARK   40  A    between atoms: _94  and  _95
REMARK   41  A    between atoms: _94  and  _97
REMARK   42  A    between atoms: _97  and  _98
REMARK   43  A    between atoms: _101  and  _103
REMARK   44  A    between atoms: _103  and  _104
REMARK   45  A    between atoms: _103  and  _106
REMARK   46  A    between atoms: _109  and  _111
REMARK   47  A    between atoms: _111  and  _112
REMARK   48  A    between atoms: _111  and  _114
REMARK   49  A    between atoms: _114  and  _115
REMARK   50  A    between atoms: _115  and  _116
REMARK   51  A    between atoms: _118  and  _120
REMARK   52  A    between atoms: _120  and  _121
REMARK   53  A    between atoms: _120  and  _123
REMARK   54  A    between atoms: _123  and  _124
REMARK   55  A    between atoms: _127  and  _129
REMARK   56  A    between atoms: _129  and  _130
REMARK   57  A    between atoms: _132  and  _134
REMARK   58  A    between atoms: _134  and  _135
REMARK   59  A    between atoms: _137  and  _139
REMARK   60  A    between atoms: _139  and  _140
REMARK   61  A    between atoms: _139  and  _142
REMARK   62  A    between atoms: _142  and  _143
REMARK   63  A    between atoms: _146  and  _148
REMARK   64  A    between atoms: _148  and  _149
REMARK   65  A    between atoms: _151  and  _153
REMARK   66  A    between atoms: _153  and  _154
REMARK   67  A    between atoms: _156  and  _158
REMARK   68  A    between atoms: _158  and  _159
REMARK   69  A    between atoms: _158  and  _161
REMARK   70  A    between atoms: _161  and  _162
REMARK   71  A    between atoms: _168  and  _170
REMARK   72  A    between atoms: _170  and  _171
REMARK   73  A    between atoms: _170  and  _173
REMARK   74  A    between atoms: _173  and  _174
REMARK   75  A    between atoms: _177  and  _179
REMARK   76  A    between atoms: _179  and  _180
REMARK   77  A    between atoms: _179  and  _182
REMARK   78  A    between atoms: _185  and  _187
REMARK   79  A    between atoms: _187  and  _188
REMARK   80  A    between atoms: _187  and  _190
REMARK   81  A    between atoms: _190  and  _191
REMARK   82  A    between atoms: _194  and  _196
REMARK   83  A    between atoms: _196  and  _197
REMARK   84  A    between atoms: _196  and  _199
REMARK   85  A    between atoms: _199  and  _200
REMARK   86  A    between atoms: _204  and  _205
REMARK   87  A    between atoms: _210  and  _212
REMARK   88  A    between atoms: _212  and  _213
REMARK   89  A    between atoms: _212  and  _215
REMARK   90  A    between atoms: _218  and  _220
REMARK   91  A    between atoms: _220  and  _221
REMARK   92  A    between atoms: _220  and  _223
REMARK   93  A    between atoms: _223  and  _224
REMARK   94  A    between atoms: _229  and  _231
REMARK   95  A    between atoms: _231  and  _232
REMARK   96  A    between atoms: _231  and  _234
REMARK   97  A    between atoms: _234  and  _235
REMARK   98  A    between atoms: _238  and  _240
REMARK   99  A    between atoms: _240  and  _241
REMARK  100  A    between atoms: _240  and  _243
REMARK  101  A    between atoms: _243  and  _244
REMARK  102  A    between atoms: _247  and  _249
REMARK  103  A    between atoms: _249  and  _250
REMARK  104  A    between atoms: _252  and  _254
REMARK  105  A    between atoms: _254  and  _255
REMARK  106  A    between atoms: _254  and  _257
REMARK  107  A    between atoms: _257  and  _258
REMARK  108  A    between atoms: _258  and  _259
REMARK  109  A    between atoms: _259  and  _260
REMARK  110  A    between atoms: _269  and  _271
REMARK  111  A    between atoms: _271  and  _272
REMARK  112  A    between atoms: _271  and  _274
REMARK  113  A    between atoms: _274  and  _275
REMARK  114  A    between atoms: _280  and  _282
REMARK  115  A    between atoms: _282  and  _283
REMARK  116  A    between atoms: _282  and  _285
REMARK  117  A    between atoms: _285  and  _286
REMARK  118  A    between atoms: _286  and  _287
REMARK  119  A    between atoms: _287  and  _288
REMARK  120  A    between atoms: _297  and  _299
REMARK  121  A    between atoms: _299  and  _300
REMARK  122  A    between atoms: _299  and  _302
REMARK  123  A    between atoms: _302  and  _303
REMARK  124  A    between atoms: _306  and  _308
REMARK  125  A    between atoms: _308  and  _309
REMARK  126  A    between atoms: _308  and  _311
REMARK  127  A    between atoms: _311  and  _312
REMARK  128  A    between atoms: _315  and  _317
REMARK  129  A    between atoms: _317  and  _318
REMARK  130  A    between atoms: _317  and  _320
REMARK  131  A    between atoms: _320  and  _321
REMARK  132  A    between atoms: _324  and  _326
REMARK  133  A    between atoms: _326  and  _327
REMARK  134  A    between atoms: _326  and  _329
REMARK  135  A    between atoms: _329  and  _330
REMARK  136  A    between atoms: _333  and  _335
REMARK  137  A    between atoms: _335  and  _336
REMARK  138  A    between atoms: _338  and  _340
REMARK  139  A    between atoms: _340  and  _341
REMARK  140  A    between atoms: _344  and  _346
REMARK  141  A    between atoms: _346  and  _347
REMARK  142  A    between atoms: _346  and  _349
REMARK  143  A    between atoms: _349  and  _350
REMARK  144  A    between atoms: _353  and  _355
REMARK  145  A    between atoms: _355  and  _356
REMARK  146  A    between atoms: _355  and  _358
REMARK  147  A    between atoms: _358  and  _359
REMARK  148  A    between atoms: _362  and  _364
REMARK  149  A    between atoms: _364  and  _365
REMARK  150  A    between atoms: _364  and  _367
REMARK  151  A    between atoms: _367  and  _368
REMARK  152  A    between atoms: _371  and  _373
REMARK  153  A    between atoms: _373  and  _374
REMARK  154  A    between atoms: _373  and  _376
REMARK  155  A    between atoms: _379  and  _381
REMARK  156  A    between atoms: _381  and  _382
REMARK  157  A    between atoms: _381  and  _384
REMARK  158  A    between atoms: _384  and  _385
REMARK  159  A    between atoms: _388  and  _390
REMARK  160  A    between atoms: _390  and  _391
REMARK  161  A    between atoms: _390  and  _393
REMARK  162  A    between atoms: _393  and  _394
REMARK  163  A    between atoms: _394  and  _395
REMARK  164  A    between atoms: _395  and  _396
REMARK  165  A    between atoms: _396  and  _397
REMARK  166  A    between atoms: _401  and  _403
REMARK  167  A    between atoms: _403  and  _404
REMARK  168  A    between atoms: _403  and  _406
REMARK  169  A    between atoms: _406  and  _407
REMARK  170  A    between atoms: _407  and  _408
REMARK  171  A    between atoms: _410  and  _412
REMARK  172  A    between atoms: _412  and  _413
REMARK  173  A    between atoms: _412  and  _415
REMARK  174  A    between atoms: _415  and  _416
REMARK  175  A    between atoms: _419  and  _421
REMARK  176  A    between atoms: _421  and  _422
REMARK  177  A    between atoms: _424  and  _426
REMARK  178  A    between atoms: _426  and  _427
REMARK  179  A    between atoms: _429  and  _431
REMARK  180  A    between atoms: _431  and  _432
REMARK  181  A    between atoms: _431  and  _434
REMARK  182  A    between atoms: _434  and  _435
REMARK  183  A    between atoms: _438  and  _440
REMARK  184  A    between atoms: _440  and  _441
REMARK  185  A    between atoms: _443  and  _445
REMARK  186  A    between atoms: _445  and  _446
REMARK  187  A    between atoms: _448  and  _450
REMARK  188  A    between atoms: _450  and  _451
REMARK  189  A    between atoms: _450  and  _453
REMARK  190  A    between atoms: _453  and  _454
REMARK  191  A    between atoms: _457  and  _459
REMARK  192  A    between atoms: _459  and  _460
REMARK  193  A    between atoms: _459  and  _462
REMARK  194  A    between atoms: _465  and  _467
REMARK  195  A    between atoms: _467  and  _468
REMARK  196  A    between atoms: _467  and  _470
REMARK  197  A    between atoms: _470  and  _471
REMARK  198  A    between atoms: _474  and  _476
REMARK  199  A    between atoms: _476  and  _477
REMARK  200  A    between atoms: _476  and  _479
REMARK  201  A    between atoms: _479  and  _480
REMARK  202  A    between atoms: _484  and  _485
REMARK  203  A    between atoms: _490  and  _492
REMARK  204  A    between atoms: _492  and  _493
REMARK  205  A    between atoms: _492  and  _495
REMARK  206  A    between atoms: _498  and  _500
REMARK  207  A    between atoms: _500  and  _501
REMARK  208  A    between atoms: _500  and  _503
REMARK  209  A    between atoms: _503  and  _504
REMARK  210  A    between atoms: _509  and  _511
REMARK  211  A    between atoms: _511  and  _512
REMARK  212  A    between atoms: _511  and  _514
REMARK  213  A    between atoms: _514  and  _515
REMARK  214  A    between atoms: _518  and  _520
REMARK  215  A    between atoms: _520  and  _521
REMARK  216  A    between atoms: _520  and  _523
REMARK  217  A    between atoms: _523  and  _524
REMARK  218  A    between atoms: _527  and  _529
REMARK  219  A    between atoms: _529  and  _530
REMARK  220  A    between atoms: _532  and  _534
REMARK  221  A    between atoms: _534  and  _535
REMARK  222  A    between atoms: _534  and  _537
REMARK  223  A    between atoms: _537  and  _538
REMARK  224  A    between atoms: _538  and  _539
REMARK  225  A    between atoms: _539  and  _540
REMARK  226  A    between atoms: _549  and  _551
REMARK  227  A    between atoms: _551  and  _552
REMARK  228  A    between atoms: _551  and  _554
REMARK  229  A    between atoms: _554  and  _555
REMARK                            x       y       z     vdW  Elec       q    Type
REMARK                         _______ _______ _______ _____ _____    ______ ____
ROOT
ATOM      1  O   HOH     1      15.274  20.166  10.864  0.00  0.00    +0.000 OA
ENDROOT
TORSDOF 0
REMARK  Name = ../refined-set-2016/2avo/2avo_pocket.pdb
REMARK  229 active torsions:
REMARK  status: ('A' for Active; 'I' for Inactive)
REMARK    1  A    between atoms: _1  and  _3
REMARK    2  A    between atoms: _3  and  _4
REMARK    3  A    between atoms: _3  and  _6
REMARK    4  A    between atoms: _6  and  _7
REMARK    5  A    between atoms: _7  and  _8
REMARK    6  A    between atoms: _8  and  _9
REMARK    7  A    between atoms: _18  and  _20
REMARK    8  A    between atoms: _20  and  _21
REMARK    9  A    between atoms: _20  and  _23
REMARK   10  A    between atoms: _23  and  _24
REMARK   11  A    between atoms: _27  and  _29
REMARK   12  A    between atoms: _29  and  _30
REMARK   13  A    between atoms: _29  and  _32
REMARK   14  A    between atoms: _32  and  _33
REMARK   15  A    between atoms: _36  and  _38
REMARK   16  A    between atoms: _38  and  _39
REMARK   17  A    between atoms: _38  and  _41
REMARK   18  A    between atoms: _41  and  _42
REMARK   19  A    between atoms: _45  and  _47
REMARK   20  A    between atoms: _47  and  _48
REMARK   21  A    between atoms: _47  and  _50
REMARK   22  A    between atoms: _50  and  _51
REMARK   23  A    between atoms: _54  and  _56
REMARK   24  A    between atoms: _56  and  _57
REMARK   25  A    between atoms: _56  and  _59
REMARK   26  A    between atoms: _59  and  _60
REMARK   27  A    between atoms: _63  and  _65
REMARK   28  A    between atoms: _65  and  _66
REMARK   29  A    between atoms: _68  and  _70
REMARK   30  A    between atoms: _70  and  _71
REMARK   31  A    between atoms: _74  and  _76
REMARK   32  A    between atoms: _76  and  _77
REMARK   33  A    between atoms: _76  and  _79
REMARK   34  A    between atoms: _79  and  _80
REMARK   35  A    between atoms: _83  and  _85
REMARK   36  A    between atoms: _85  and  _86
REMARK   37  A    between atoms: _85  and  _88
REMARK   38  A    between atoms: _88  and  _89
REMARK   39  A    between atoms: _92  and  _94
REMARK   40  A    between atoms: _94  and  _95
REMARK   41  A    between atoms: _94  and  _97
REMARK   42  A    between atoms: _97  and  _98
REMARK   43  A    between atoms: _101  and  _103
REMARK   44  A    between atoms: _103  and  _104
REMARK   45  A    between atoms: _103  and  _106
REMARK   46  A    between atoms: _109  and  _111
REMARK   47  A    between atoms: _111  and  _112
REMARK   48  A    between atoms: _111  and  _114
REMARK   49  A    between atoms: _114  and  _115
REMARK   50  A    between atoms: _115  and  _116
REMARK   51  A    between atoms: _118  and  _120
REMARK   52  A    between atoms: _120  and  _121
REMARK   53  A    between atoms: _120  and  _123
REMARK   54  A    between atoms: _123  and  _124
REMARK   55  A    between atoms: _127  and  _129
REMARK   56  A    between atoms: _129  and  _130
REMARK   57  A    between atoms: _132  and  _134
REMARK   58  A    between atoms: _134  and  _135
REMARK   59  A    between atoms: _137  and  _139
REMARK   60  A    between atoms: _139  and  _140
REMARK   61  A    between atoms: _139  and  _142
REMARK   62  A    between atoms: _142  and  _143
REMARK   63  A    between atoms: _146  and  _148
REMARK   64  A    between atoms: _148  and  _149
REMARK   65  A    between atoms: _151  and  _153
REMARK   66  A    between atoms: _153  and  _154
REMARK   67  A    between atoms: _156  and  _158
REMARK   68  A    between atoms: _158  and  _159
REMARK   69  A    between atoms: _158  and  _161
REMARK   70  A    between atoms: _161  and  _162
REMARK   71  A    between atoms: _168  and  _170
REMARK   72  A    between atoms: _170  and  _171
REMARK   73  A    between atoms: _170  and  _173
REMARK   74  A    between atoms: _173  and  _174
REMARK   75  A    between atoms: _177  and  _179
REMARK   76  A    between atoms: _179  and  _180
REMARK   77  A    between atoms: _179  and  _182
REMARK   78  A    between atoms: _185  and  _187
REMARK   79  A    between atoms: _187  and  _188
REMARK   80  A    between atoms: _187  and  _190
REMARK   81  A    between atoms: _190  and  _191
REMARK   82  A    between atoms: _194  and  _196
REMARK   83  A    between atoms: _196  and  _197
REMARK   84  A    between atoms: _196  and  _199
REMARK   85  A    between atoms: _199  and  _200
REMARK   86  A    between atoms: _204  and  _205
REMARK   87  A    between atoms: _210  and  _212
REMARK   88  A    between atoms: _212  and  _213
REMARK   89  A    between atoms: _212  and  _215
REMARK   90  A    between atoms: _218  and  _220
REMARK   91  A    between atoms: _220  and  _221
REMARK   92  A    between atoms: _220  and  _223
REMARK   93  A    between atoms: _223  and  _224
REMARK   94  A    between atoms: _229  and  _231
REMARK   95  A    between atoms: _231  and  _232
REMARK   96  A    between atoms: _231  and  _234
REMARK   97  A    between atoms: _234  and  _235
REMARK   98  A    between atoms: _238  and  _240
REMARK   99  A    between atoms: _240  and  _241
REMARK  100  A    between atoms: _240  and  _243
REMARK  101  A    between atoms: _243  and  _244
REMARK  102  A    between atoms: _247  and  _249
REMARK  103  A    between atoms: _249  and  _250
REMARK  104  A    between atoms: _252  and  _254
REMARK  105  A    between atoms: _254  and  _255
REMARK  106  A    between atoms: _254  and  _257
REMARK  107  A    between atoms: _257  and  _258
REMARK  108  A    between atoms: _258  and  _259
REMARK  109  A    between atoms: _259  and  _260
REMARK  110  A    between atoms: _269  and  _271
REMARK  111  A    between atoms: _271  and  _272
REMARK  112  A    between atoms: _271  and  _274
REMARK  113  A    between atoms: _274  and  _275
REMARK  114  A    between atoms: _280  and  _282
REMARK  115  A    between atoms: _282  and  _283
REMARK  116  A    between atoms: _282  and  _285
REMARK  117  A    between atoms: _285  and  _286
REMARK  118  A    between atoms: _286  and  _287
REMARK  119  A    between atoms: _287  and  _288
REMARK  120  A    between atoms: _297  and  _299
REMARK  121  A    between atoms: _299  and  _300
REMARK  122  A    between atoms: _299  and  _302
REMARK  123  A    between atoms: _302  and  _303
REMARK  124  A    between atoms: _306  and  _308
REMARK  125  A    between atoms: _308  and  _309
REMARK  126  A    between atoms: _308  and  _311
REMARK  127  A    between atoms: _311  and  _312
REMARK  128  A    between atoms: _315  and  _317
REMARK  129  A    between atoms: _317  and  _318
REMARK  130  A    between atoms: _317  and  _320
REMARK  131  A    between atoms: _320  and  _321
REMARK  132  A    between atoms: _324  and  _326
REMARK  133  A    between atoms: _326  and  _327
REMARK  134  A    between atoms: _326  and  _329
REMARK  135  A    between atoms: _329  and  _330
REMARK  136  A    between atoms: _333  and  _335
REMARK  137  A    between atoms: _335  and  _336
REMARK  138  A    between atoms: _338  and  _340
REMARK  139  A    between atoms: _340  and  _341
REMARK  140  A    between atoms: _344  and  _346
REMARK  141  A    between atoms: _346  and  _347
REMARK  142  A    between atoms: _346  and  _349
REMARK  143  A    between atoms: _349  and  _350
REMARK  144  A    between atoms: _353  and  _355
REMARK  145  A    between atoms: _355  and  _356
REMARK  146  A    between atoms: _355  and  _358
REMARK  147  A    between atoms: _358  and  _359
REMARK  148  A    between atoms: _362  and  _364
REMARK  149  A    between atoms: _364  and  _365
REMARK  150  A    between atoms: _364  and  _367
REMARK  151  A    between atoms: _367  and  _368
REMARK  152  A    between atoms: _371  and  _373
REMARK  153  A    between atoms: _373  and  _374
REMARK  154  A    between atoms: _373  and  _376
REMARK  155  A    between atoms: _379  and  _381
REMARK  156  A    between atoms: _381  and  _382
REMARK  157  A    between atoms: _381  and  _384
REMARK  158  A    between atoms: _384  and  _385
REMARK  159  A    between atoms: _388  and  _390
REMARK  160  A    between atoms: _390  and  _391
REMARK  161  A    between atoms: _390  and  _393
REMARK  162  A    between atoms: _393  and  _394
REMARK  163  A    between atoms: _394  and  _395
REMARK  164  A    between atoms: _395  and  _396
REMARK  165  A    between atoms: _396  and  _397
REMARK  166  A    between atoms: _401  and  _403
REMARK  167  A    between atoms: _403  and  _404
REMARK  168  A    between atoms: _403  and  _406
REMARK  169  A    between atoms: _406  and  _407
REMARK  170  A    between atoms: _407  and  _408
REMARK  171  A    between atoms: _410  and  _412
REMARK  172  A    between atoms: _412  and  _413
REMARK  173  A    between atoms: _412  and  _415
REMARK  174  A    between atoms: _415  and  _416
REMARK  175  A    between atoms: _419  and  _421
REMARK  176  A    between atoms: _421  and  _422
REMARK  177  A    between atoms: _424  and  _426
REMARK  178  A    between atoms: _426  and  _427
REMARK  179  A    between atoms: _429  and  _431
REMARK  180  A    between atoms: _431  and  _432
REMARK  181  A    between atoms: _431  and  _434
REMARK  182  A    between atoms: _434  and  _435
REMARK  183  A    between atoms: _438  and  _440
REMARK  184  A    between atoms: _440  and  _441
REMARK  185  A    between atoms: _443  and  _445
REMARK  186  A    between atoms: _445  and  _446
REMARK  187  A    between atoms: _448  and  _450
REMARK  188  A    between atoms: _450  and  _451
REMARK  189  A    between atoms: _450  and  _453
REMARK  190  A    between atoms: _453  and  _454
REMARK  191  A    between atoms: _457  and  _459
REMARK  192  A    between atoms: _459  and  _460
REMARK  193  A    between atoms: _459  and  _462
REMARK  194  A    between atoms: _465  and  _467
REMARK  195  A    between atoms: _467  and  _468
REMARK  196  A    between atoms: _467  and  _470
REMARK  197  A    between atoms: _470  and  _471
REMARK  198  A    between atoms: _474  and  _476
REMARK  199  A    between atoms: _476  and  _477
REMARK  200  A    between atoms: _476  and  _479
REMARK  201  A    between atoms: _479  and  _480
REMARK  202  A    between atoms: _484  and  _485
REMARK  203  A    between atoms: _490  and  _492
REMARK  204  A    between atoms: _492  and  _493
REMARK  205  A    between atoms: _492  and  _495
REMARK  206  A    between atoms: _498  and  _500
REMARK  207  A    between atoms: _500  and  _501
REMARK  208  A    between atoms: _500  and  _503
REMARK  209  A    between atoms: _503  and  _504
REMARK  210  A    between atoms: _509  and  _511
REMARK  211  A    between atoms: _511  and  _512
REMARK  212  A    between atoms: _511  and  _514
REMARK  213  A    between atoms: _514  and  _515
REMARK  214  A    between atoms: _518  and  _520
REMARK  215  A    between atoms: _520  and  _521
REMARK  216  A    between atoms: _520  and  _523
REMARK  217  A    between atoms: _523  and  _524
REMARK  218  A    between atoms: _527  and  _529
REMARK  219  A    between atoms: _529  and  _530
REMARK  220  A    between atoms: _532  and  _534
REMARK  221  A    between atoms: _534  and  _535
REMARK  222  A    between atoms: _534  and  _537
REMARK  223  A    between atoms: _537  and  _538
REMARK  224  A    between atoms: _538  and  _539
REMARK  225  A    between atoms: _539  and  _540
REMARK  226  A    between atoms: _549  and  _551
REMARK  227  A    between atoms: _551  and  _552
REMARK  228  A    between atoms: _551  and  _554
REMARK  229  A    between atoms: _554  and  _555
REMARK                            x       y       z     vdW  Elec       q    Type
REMARK                         _______ _______ _______ _____ _____    ______ ____
ROOT
ATOM      1  O   HOH     1      12.342  20.924  11.203  0.00  0.00    +0.000 OA
ENDROOT
TORSDOF 0
REMARK  Name = ../refined-set-2016/2avo/2avo_pocket.pdb
REMARK  229 active torsions:
REMARK  status: ('A' for Active; 'I' for Inactive)
REMARK    1  A    between atoms: _1  and  _3
REMARK    2  A    between atoms: _3  and  _4
REMARK    3  A    between atoms: _3  and  _6
REMARK    4  A    between atoms: _6  and  _7
REMARK    5  A    between atoms: _7  and  _8
REMARK    6  A    between atoms: _8  and  _9
REMARK    7  A    between atoms: _18  and  _20
REMARK    8  A    between atoms: _20  and  _21
REMARK    9  A    between atoms: _20  and  _23
REMARK   10  A    between atoms: _23  and  _24
REMARK   11  A    between atoms: _27  and  _29
REMARK   12  A    between atoms: _29  and  _30
REMARK   13  A    between atoms: _29  and  _32
REMARK   14  A    between atoms: _32  and  _33
REMARK   15  A    between atoms: _36  and  _38
REMARK   16  A    between atoms: _38  and  _39
REMARK   17  A    between atoms: _38  and  _41
REMARK   18  A    between atoms: _41  and  _42
REMARK   19  A    between atoms: _45  and  _47
REMARK   20  A    between atoms: _47  and  _48
REMARK   21  A    between atoms: _47  and  _50
REMARK   22  A    between atoms: _50  and  _51
REMARK   23  A    between atoms: _54  and  _56
REMARK   24  A    between atoms: _56  and  _57
REMARK   25  A    between atoms: _56  and  _59
REMARK   26  A    between atoms: _59  and  _60
REMARK   27  A    between atoms: _63  and  _65
REMARK   28  A    between atoms: _65  and  _66
REMARK   29  A    between atoms: _68  and  _70
REMARK   30  A    between atoms: _70  and  _71
REMARK   31  A    between atoms: _74  and  _76
REMARK   32  A    between atoms: _76  and  _77
REMARK   33  A    between atoms: _76  and  _79
REMARK   34  A    between atoms: _79  and  _80
REMARK   35  A    between atoms: _83  and  _85
REMARK   36  A    between atoms: _85  and  _86
REMARK   37  A    between atoms: _85  and  _88
REMARK   38  A    between atoms: _88  and  _89
REMARK   39  A    between atoms: _92  and  _94
REMARK   40  A    between atoms: _94  and  _95
REMARK   41  A    between atoms: _94  and  _97
REMARK   42  A    between atoms: _97  and  _98
REMARK   43  A    between atoms: _101  and  _103
REMARK   44  A    between atoms: _103  and  _104
REMARK   45  A    between atoms: _103  and  _106
REMARK   46  A    between atoms: _109  and  _111
REMARK   47  A    between atoms: _111  and  _112
REMARK   48  A    between atoms: _111  and  _114
REMARK   49  A    between atoms: _114  and  _115
REMARK   50  A    between atoms: _115  and  _116
REMARK   51  A    between atoms: _118  and  _120
REMARK   52  A    between atoms: _120  and  _121
REMARK   53  A    between atoms: _120  and  _123
REMARK   54  A    between atoms: _123  and  _124
REMARK   55  A    between atoms: _127  and  _129
REMARK   56  A    between atoms: _129  and  _130
REMARK   57  A    between atoms: _132  and  _134
REMARK   58  A    between atoms: _134  and  _135
REMARK   59  A    between atoms: _137  and  _139
REMARK   60  A    between atoms: _139  and  _140
REMARK   61  A    between atoms: _139  and  _142
REMARK   62  A    between atoms: _142  and  _143
REMARK   63  A    between atoms: _146  and  _148
REMARK   64  A    between atoms: _148  and  _149
REMARK   65  A    between atoms: _151  and  _153
REMARK   66  A    between atoms: _153  and  _154
REMARK   67  A    between atoms: _156  and  _158
REMARK   68  A    between atoms: _158  and  _159
REMARK   69  A    between atoms: _158  and  _161
REMARK   70  A    between atoms: _161  and  _162
REMARK   71  A    between atoms: _168  and  _170
REMARK   72  A    between atoms: _170  and  _171
REMARK   73  A    between atoms: _170  and  _173
REMARK   74  A    between atoms: _173  and  _174
REMARK   75  A    between atoms: _177  and  _179
REMARK   76  A    between atoms: _179  and  _180
REMARK   77  A    between atoms: _179  and  _182
REMARK   78  A    between atoms: _185  and  _187
REMARK   79  A    between atoms: _187  and  _188
REMARK   80  A    between atoms: _187  and  _190
REMARK   81  A    between atoms: _190  and  _191
REMARK   82  A    between atoms: _194  and  _196
REMARK   83  A    between atoms: _196  and  _197
REMARK   84  A    between atoms: _196  and  _199
REMARK   85  A    between atoms: _199  and  _200
REMARK   86  A    between atoms: _204  and  _205
REMARK   87  A    between atoms: _210  and  _212
REMARK   88  A    between atoms: _212  and  _213
REMARK   89  A    between atoms: _212  and  _215
REMARK   90  A    between atoms: _218  and  _220
REMARK   91  A    between atoms: _220  and  _221
REMARK   92  A    between atoms: _220  and  _223
REMARK   93  A    between atoms: _223  and  _224
REMARK   94  A    between atoms: _229  and  _231
REMARK   95  A    between atoms: _231  and  _232
REMARK   96  A    between atoms: _231  and  _234
REMARK   97  A    between atoms: _234  and  _235
REMARK   98  A    between atoms: _238  and  _240
REMARK   99  A    between atoms: _240  and  _241
REMARK  100  A    between atoms: _240  and  _243
REMARK  101  A    between atoms: _243  and  _244
REMARK  102  A    between atoms: _247  and  _249
REMARK  103  A    between atoms: _249  and  _250
REMARK  104  A    between atoms: _252  and  _254
REMARK  105  A    between atoms: _254  and  _255
REMARK  106  A    between atoms: _254  and  _257
REMARK  107  A    between atoms: _257  and  _258
REMARK  108  A    between atoms: _258  and  _259
REMARK  109  A    between atoms: _259  and  _260
REMARK  110  A    between atoms: _269  and  _271
REMARK  111  A    between atoms: _271  and  _272
REMARK  112  A    between atoms: _271  and  _274
REMARK  113  A    between atoms: _274  and  _275
REMARK  114  A    between atoms: _280  and  _282
REMARK  115  A    between atoms: _282  and  _283
REMARK  116  A    between atoms: _282  and  _285
REMARK  117  A    between atoms: _285  and  _286
REMARK  118  A    between atoms: _286  and  _287
REMARK  119  A    between atoms: _287  and  _288
REMARK  120  A    between atoms: _297  and  _299
REMARK  121  A    between atoms: _299  and  _300
REMARK  122  A    between atoms: _299  and  _302
REMARK  123  A    between atoms: _302  and  _303
REMARK  124  A    between atoms: _306  and  _308
REMARK  125  A    between atoms: _308  and  _309
REMARK  126  A    between atoms: _308  and  _311
REMARK  127  A    between atoms: _311  and  _312
REMARK  128  A    between atoms: _315  and  _317
REMARK  129  A    between atoms: _317  and  _318
REMARK  130  A    between atoms: _317  and  _320
REMARK  131  A    between atoms: _320  and  _321
REMARK  132  A    between atoms: _324  and  _326
REMARK  133  A    between atoms: _326  and  _327
REMARK  134  A    between atoms: _326  and  _329
REMARK  135  A    between atoms: _329  and  _330
REMARK  136  A    between atoms: _333  and  _335
REMARK  137  A    between atoms: _335  and  _336
REMARK  138  A    between atoms: _338  and  _340
REMARK  139  A    between atoms: _340  and  _341
REMARK  140  A    between atoms: _344  and  _346
REMARK  141  A    between atoms: _346  and  _347
REMARK  142  A    between atoms: _346  and  _349
REMARK  143  A    between atoms: _349  and  _350
REMARK  144  A    between atoms: _353  and  _355
REMARK  145  A    between atoms: _355  and  _356
REMARK  146  A    between atoms: _355  and  _358
REMARK  147  A    between atoms: _358  and  _359
REMARK  148  A    between atoms: _362  and  _364
REMARK  149  A    between atoms: _364  and  _365
REMARK  150  A    between atoms: _364  and  _367
REMARK  151  A    between atoms: _367  and  _368
REMARK  152  A    between atoms: _371  and  _373
REMARK  153  A    between atoms: _373  and  _374
REMARK  154  A    between atoms: _373  and  _376
REMARK  155  A    between atoms: _379  and  _381
REMARK  156  A    between atoms: _381  and  _382
REMARK  157  A    between atoms: _381  and  _384
REMARK  158  A    between atoms: _384  and  _385
REMARK  159  A    between atoms: _388  and  _390
REMARK  160  A    between atoms: _390  and  _391
REMARK  161  A    between atoms: _390  and  _393
REMARK  162  A    between atoms: _393  and  _394
REMARK  163  A    between atoms: _394  and  _395
REMARK  164  A    between atoms: _395  and  _396
REMARK  165  A    between atoms: _396  and  _397
REMARK  166  A    between atoms: _401  and  _403
REMARK  167  A    between atoms: _403  and  _404
REMARK  168  A    between atoms: _403  and  _406
REMARK  169  A    between atoms: _406  and  _407
REMARK  170  A    between atoms: _407  and  _408
REMARK  171  A    between atoms: _410  and  _412
REMARK  172  A    between atoms: _412  and  _413
REMARK  173  A    between atoms: _412  and  _415
REMARK  174  A    between atoms: _415  and  _416
REMARK  175  A    between atoms: _419  and  _421
REMARK  176  A    between atoms: _421  and  _422
REMARK  177  A    between atoms: _424  and  _426
REMARK  178  A    between atoms: _426  and  _427
REMARK  179  A    between atoms: _429  and  _431
REMARK  180  A    between atoms: _431  and  _432
REMARK  181  A    between atoms: _431  and  _434
REMARK  182  A    between atoms: _434  and  _435
REMARK  183  A    between atoms: _438  and  _440
REMARK  184  A    between atoms: _440  and  _441
REMARK  185  A    between atoms: _443  and  _445
REMARK  186  A    between atoms: _445  and  _446
REMARK  187  A    between atoms: _448  and  _450
REMARK  188  A    between atoms: _450  and  _451
REMARK  189  A    between atoms: _450  and  _453
REMARK  190  A    between atoms: _453  and  _454
REMARK  191  A    between atoms: _457  and  _459
REMARK  192  A    between atoms: _459  and  _460
REMARK  193  A    between atoms: _459  and  _462
REMARK  194  A    between atoms: _465  and  _467
REMARK  195  A    between atoms: _467  and  _468
REMARK  196  A    between atoms: _467  and  _470
REMARK  197  A    between atoms: _470  and  _471
REMARK  198  A    between atoms: _474  and  _476
REMARK  199  A    between atoms: _476  and  _477
REMARK  200  A    between atoms: _476  and  _479
REMARK  201  A    between atoms: _479  and  _480
REMARK  202  A    between atoms: _484  and  _485
REMARK  203  A    between atoms: _490  and  _492
REMARK  204  A    between atoms: _492  and  _493
REMARK  205  A    between atoms: _492  and  _495
REMARK  206  A    between atoms: _498  and  _500
REMARK  207  A    between atoms: _500  and  _501
REMARK  208  A    between atoms: _500  and  _503
REMARK  209  A    between atoms: _503  and  _504
REMARK  210  A    between atoms: _509  and  _511
REMARK  211  A    between atoms: _511  and  _512
REMARK  212  A    between atoms: _511  and  _514
REMARK  213  A    between atoms: _514  and  _515
REMARK  214  A    between atoms: _518  and  _520
REMARK  215  A    between atoms: _520  and  _521
REMARK  216  A    between atoms: _520  and  _523
REMARK  217  A    between atoms: _523  and  _524
REMARK  218  A    between atoms: _527  and  _529
REMARK  219  A    between atoms: _529  and  _530
REMARK  220  A    between atoms: _532  and  _534
REMARK  221  A    between atoms: _534  and  _535
REMARK  222  A    between atoms: _534  and  _537
REMARK  223  A    between atoms: _537  and  _538
REMARK  224  A    between atoms: _538  and  _539
REMARK  225  A    between atoms: _539  and  _540
REMARK  226  A    between atoms: _549  and  _551
REMARK  227  A    between atoms: _551  and  _552
REMARK  228  A    between atoms: _551  and  _554
REMARK  229  A    between atoms: _554  and  _555
REMARK                            x       y       z     vdW  Elec       q    Type
REMARK                         _______ _______ _______ _____ _____    ______ ____
ROOT
ATOM      1  O   HOH     1      14.786  40.198  19.800  0.00  0.00    +0.000 OA
ENDROOT
TORSDOF 0
REMARK  Name = ../refined-set-2016/2avo/2avo_pocket.pdb
REMARK  229 active torsions:
REMARK  status: ('A' for Active; 'I' for Inactive)
REMARK    1  A    between atoms: _1  and  _3
REMARK    2  A    between atoms: _3  and  _4
REMARK    3  A    between atoms: _3  and  _6
REMARK    4  A    between atoms: _6  and  _7
REMARK    5  A    between atoms: _7  and  _8
REMARK    6  A    between atoms: _8  and  _9
REMARK    7  A    between atoms: _18  and  _20
REMARK    8  A    between atoms: _20  and  _21
REMARK    9  A    between atoms: _20  and  _23
REMARK   10  A    between atoms: _23  and  _24
REMARK   11  A    between atoms: _27  and  _29
REMARK   12  A    between atoms: _29  and  _30
REMARK   13  A    between atoms: _29  and  _32
REMARK   14  A    between atoms: _32  and  _33
REMARK   15  A    between atoms: _36  and  _38
REMARK   16  A    between atoms: _38  and  _39
REMARK   17  A    between atoms: _38  and  _41
REMARK   18  A    between atoms: _41  and  _42
REMARK   19  A    between atoms: _45  and  _47
REMARK   20  A    between atoms: _47  and  _48
REMARK   21  A    between atoms: _47  and  _50
REMARK   22  A    between atoms: _50  and  _51
REMARK   23  A    between atoms: _54  and  _56
REMARK   24  A    between atoms: _56  and  _57
REMARK   25  A    between atoms: _56  and  _59
REMARK   26  A    between atoms: _59  and  _60
REMARK   27  A    between atoms: _63  and  _65
REMARK   28  A    between atoms: _65  and  _66
REMARK   29  A    between atoms: _68  and  _70
REMARK   30  A    between atoms: _70  and  _71
REMARK   31  A    between atoms: _74  and  _76
REMARK   32  A    between atoms: _76  and  _77
REMARK   33  A    between atoms: _76  and  _79
REMARK   34  A    between atoms: _79  and  _80
REMARK   35  A    between atoms: _83  and  _85
REMARK   36  A    between atoms: _85  and  _86
REMARK   37  A    between atoms: _85  and  _88
REMARK   38  A    between atoms: _88  and  _89
REMARK   39  A    between atoms: _92  and  _94
REMARK   40  A    between atoms: _94  and  _95
REMARK   41  A    between atoms: _94  and  _97
REMARK   42  A    between atoms: _97  and  _98
REMARK   43  A    between atoms: _101  and  _103
REMARK   44  A    between atoms: _103  and  _104
REMARK   45  A    between atoms: _103  and  _106
REMARK   46  A    between atoms: _109  and  _111
REMARK   47  A    between atoms: _111  and  _112
REMARK   48  A    between atoms: _111  and  _114
REMARK   49  A    between atoms: _114  and  _115
REMARK   50  A    between atoms: _115  and  _116
REMARK   51  A    between atoms: _118  and  _120
REMARK   52  A    between atoms: _120  and  _121
REMARK   53  A    between atoms: _120  and  _123
REMARK   54  A    between atoms: _123  and  _124
REMARK   55  A    between atoms: _127  and  _129
REMARK   56  A    between atoms: _129  and  _130
REMARK   57  A    between atoms: _132  and  _134
REMARK   58  A    between atoms: _134  and  _135
REMARK   59  A    between atoms: _137  and  _139
REMARK   60  A    between atoms: _139  and  _140
REMARK   61  A    between atoms: _139  and  _142
REMARK   62  A    between atoms: _142  and  _143
REMARK   63  A    between atoms: _146  and  _148
REMARK   64  A    between atoms: _148  and  _149
REMARK   65  A    between atoms: _151  and  _153
REMARK   66  A    between atoms: _153  and  _154
REMARK   67  A    between atoms: _156  and  _158
REMARK   68  A    between atoms: _158  and  _159
REMARK   69  A    between atoms: _158  and  _161
REMARK   70  A    between atoms: _161  and  _162
REMARK   71  A    between atoms: _168  and  _170
REMARK   72  A    between atoms: _170  and  _171
REMARK   73  A    between atoms: _170  and  _173
REMARK   74  A    between atoms: _173  and  _174
REMARK   75  A    between atoms: _177  and  _179
REMARK   76  A    between atoms: _179  and  _180
REMARK   77  A    between atoms: _179  and  _182
REMARK   78  A    between atoms: _185  and  _187
REMARK   79  A    between atoms: _187  and  _188
REMARK   80  A    between atoms: _187  and  _190
REMARK   81  A    between atoms: _190  and  _191
REMARK   82  A    between atoms: _194  and  _196
REMARK   83  A    between atoms: _196  and  _197
REMARK   84  A    between atoms: _196  and  _199
REMARK   85  A    between atoms: _199  and  _200
REMARK   86  A    between atoms: _204  and  _205
REMARK   87  A    between atoms: _210  and  _212
REMARK   88  A    between atoms: _212  and  _213
REMARK   89  A    between atoms: _212  and  _215
REMARK   90  A    between atoms: _218  and  _220
REMARK   91  A    between atoms: _220  and  _221
REMARK   92  A    between atoms: _220  and  _223
REMARK   93  A    between atoms: _223  and  _224
REMARK   94  A    between atoms: _229  and  _231
REMARK   95  A    between atoms: _231  and  _232
REMARK   96  A    between atoms: _231  and  _234
REMARK   97  A    between atoms: _234  and  _235
REMARK   98  A    between atoms: _238  and  _240
REMARK   99  A    between atoms: _240  and  _241
REMARK  100  A    between atoms: _240  and  _243
REMARK  101  A    between atoms: _243  and  _244
REMARK  102  A    between atoms: _247  and  _249
REMARK  103  A    between atoms: _249  and  _250
REMARK  104  A    between atoms: _252  and  _254
REMARK  105  A    between atoms: _254  and  _255
REMARK  106  A    between atoms: _254  and  _257
REMARK  107  A    between atoms: _257  and  _258
REMARK  108  A    between atoms: _258  and  _259
REMARK  109  A    between atoms: _259  and  _260
REMARK  110  A    between atoms: _269  and  _271
REMARK  111  A    between atoms: _271  and  _272
REMARK  112  A    between atoms: _271  and  _274
REMARK  113  A    between atoms: _274  and  _275
REMARK  114  A    between atoms: _280  and  _282
REMARK  115  A    between atoms: _282  and  _283
REMARK  116  A    between atoms: _282  and  _285
REMARK  117  A    between atoms: _285  and  _286
REMARK  118  A    between atoms: _286  and  _287
REMARK  119  A    between atoms: _287  and  _288
REMARK  120  A    between atoms: _297  and  _299
REMARK  121  A    between atoms: _299  and  _300
REMARK  122  A    between atoms: _299  and  _302
REMARK  123  A    between atoms: _302  and  _303
REMARK  124  A    between atoms: _306  and  _308
REMARK  125  A    between atoms: _308  and  _309
REMARK  126  A    between atoms: _308  and  _311
REMARK  127  A    between atoms: _311  and  _312
REMARK  128  A    between atoms: _315  and  _317
REMARK  129  A    between atoms: _317  and  _318
REMARK  130  A    between atoms: _317  and  _320
REMARK  131  A    between atoms: _320  and  _321
REMARK  132  A    between atoms: _324  and  _326
REMARK  133  A    between atoms: _326  and  _327
REMARK  134  A    between atoms: _326  and  _329
REMARK  135  A    between atoms: _329  and  _330
REMARK  136  A    between atoms: _333  and  _335
REMARK  137  A    between atoms: _335  and  _336
REMARK  138  A    between atoms: _338  and  _340
REMARK  139  A    between atoms: _340  and  _341
REMARK  140  A    between atoms: _344  and  _346
REMARK  141  A    between atoms: _346  and  _347
REMARK  142  A    between atoms: _346  and  _349
REMARK  143  A    between atoms: _349  and  _350
REMARK  144  A    between atoms: _353  and  _355
REMARK  145  A    between atoms: _355  and  _356
REMARK  146  A    between atoms: _355  and  _358
REMARK  147  A    between atoms: _358  and  _359
REMARK  148  A    between atoms: _362  and  _364
REMARK  149  A    between atoms: _364  and  _365
REMARK  150  A    between atoms: _364  and  _367
REMARK  151  A    between atoms: _367  and  _368
REMARK  152  A    between atoms: _371  and  _373
REMARK  153  A    between atoms: _373  and  _374
REMARK  154  A    between atoms: _373  and  _376
REMARK  155  A    between atoms: _379  and  _381
REMARK  156  A    between atoms: _381  and  _382
REMARK  157  A    between atoms: _381  and  _384
REMARK  158  A    between atoms: _384  and  _385
REMARK  159  A    between atoms: _388  and  _390
REMARK  160  A    between atoms: _390  and  _391
REMARK  161  A    between atoms: _390  and  _393
REMARK  162  A    between atoms: _393  and  _394
REMARK  163  A    between atoms: _394  and  _395
REMARK  164  A    between atoms: _395  and  _396
REMARK  165  A    between atoms: _396  and  _397
REMARK  166  A    between atoms: _401  and  _403
REMARK  167  A    between atoms: _403  and  _404
REMARK  168  A    between atoms: _403  and  _406
REMARK  169  A    between atoms: _406  and  _407
REMARK  170  A    between atoms: _407  and  _408
REMARK  171  A    between atoms: _410  and  _412
REMARK  172  A    between atoms: _412  and  _413
REMARK  173  A    between atoms: _412  and  _415
REMARK  174  A    between atoms: _415  and  _416
REMARK  175  A    between atoms: _419  and  _421
REMARK  176  A    between atoms: _421  and  _422
REMARK  177  A    between atoms: _424  and  _426
REMARK  178  A    between atoms: _426  and  _427
REMARK  179  A    between atoms: _429  and  _431
REMARK  180  A    between atoms: _431  and  _432
REMARK  181  A    between atoms: _431  and  _434
REMARK  182  A    between atoms: _434  and  _435
REMARK  183  A    between atoms: _438  and  _440
REMARK  184  A    between atoms: _440  and  _441
REMARK  185  A    between atoms: _443  and  _445
REMARK  186  A    between atoms: _445  and  _446
REMARK  187  A    between atoms: _448  and  _450
REMARK  188  A    between atoms: _450  and  _451
REMARK  189  A    between atoms: _450  and  _453
REMARK  190  A    between atoms: _453  and  _454
REMARK  191  A    between atoms: _457  and  _459
REMARK  192  A    between atoms: _459  and  _460
REMARK  193  A    between atoms: _459  and  _462
REMARK  194  A    between atoms: _465  and  _467
REMARK  195  A    between atoms: _467  and  _468
REMARK  196  A    between atoms: _467  and  _470
REMARK  197  A    between atoms: _470  and  _471
REMARK  198  A    between atoms: _474  and  _476
REMARK  199  A    between atoms: _476  and  _477
REMARK  200  A    between atoms: _476  and  _479
REMARK  201  A    between atoms: _479  and  _480
REMARK  202  A    between atoms: _484  and  _485
REMARK  203  A    between atoms: _490  and  _492
REMARK  204  A    between atoms: _492  and  _493
REMARK  205  A    between atoms: _492  and  _495
REMARK  206  A    between atoms: _498  and  _500
REMARK  207  A    between atoms: _500  and  _501
REMARK  208  A    between atoms: _500  and  _503
REMARK  209  A    between atoms: _503  and  _504
REMARK  210  A    between atoms: _509  and  _511
REMARK  211  A    between atoms: _511  and  _512
REMARK  212  A    between atoms: _511  and  _514
REMARK  213  A    between atoms: _514  and  _515
REMARK  214  A    between atoms: _518  and  _520
REMARK  215  A    between atoms: _520  and  _521
REMARK  216  A    between atoms: _520  and  _523
REMARK  217  A    between atoms: _523  and  _524
REMARK  218  A    between atoms: _527  and  _529
REMARK  219  A    between atoms: _529  and  _530
REMARK  220  A    between atoms: _532  and  _534
REMARK  221  A    between atoms: _534  and  _535
REMARK  222  A    between atoms: _534  and  _537
REMARK  223  A    between atoms: _537  and  _538
REMARK  224  A    between atoms: _538  and  _539
REMARK  225  A    between atoms: _539  and  _540
REMARK  226  A    between atoms: _549  and  _551
REMARK  227  A    between atoms: _551  and  _552
REMARK  228  A    between atoms: _551  and  _554
REMARK  229  A    between atoms: _554  and  _555
REMARK                            x       y       z     vdW  Elec       q    Type
REMARK                         _______ _______ _______ _____ _____    ______ ____
ROOT
ATOM      1  O   HOH     1      19.950  39.216  24.267  0.00  0.00    +0.000 OA
ENDROOT
TORSDOF 0
REMARK  Name = ../refined-set-2016/2avo/2avo_pocket.pdb
REMARK  229 active torsions:
REMARK  status: ('A' for Active; 'I' for Inactive)
REMARK    1  A    between atoms: _1  and  _3
REMARK    2  A    between atoms: _3  and  _4
REMARK    3  A    between atoms: _3  and  _6
REMARK    4  A    between atoms: _6  and  _7
REMARK    5  A    between atoms: _7  and  _8
REMARK    6  A    between atoms: _8  and  _9
REMARK    7  A    between atoms: _18  and  _20
REMARK    8  A    between atoms: _20  and  _21
REMARK    9  A    between atoms: _20  and  _23
REMARK   10  A    between atoms: _23  and  _24
REMARK   11  A    between atoms: _27  and  _29
REMARK   12  A    between atoms: _29  and  _30
REMARK   13  A    between atoms: _29  and  _32
REMARK   14  A    between atoms: _32  and  _33
REMARK   15  A    between atoms: _36  and  _38
REMARK   16  A    between atoms: _38  and  _39
REMARK   17  A    between atoms: _38  and  _41
REMARK   18  A    between atoms: _41  and  _42
REMARK   19  A    between atoms: _45  and  _47
REMARK   20  A    between atoms: _47  and  _48
REMARK   21  A    between atoms: _47  and  _50
REMARK   22  A    between atoms: _50  and  _51
REMARK   23  A    between atoms: _54  and  _56
REMARK   24  A    between atoms: _56  and  _57
REMARK   25  A    between atoms: _56  and  _59
REMARK   26  A    between atoms: _59  and  _60
REMARK   27  A    between atoms: _63  and  _65
REMARK   28  A    between atoms: _65  and  _66
REMARK   29  A    between atoms: _68  and  _70
REMARK   30  A    between atoms: _70  and  _71
REMARK   31  A    between atoms: _74  and  _76
REMARK   32  A    between atoms: _76  and  _77
REMARK   33  A    between atoms: _76  and  _79
REMARK   34  A    between atoms: _79  and  _80
REMARK   35  A    between atoms: _83  and  _85
REMARK   36  A    between atoms: _85  and  _86
REMARK   37  A    between atoms: _85  and  _88
REMARK   38  A    between atoms: _88  and  _89
REMARK   39  A    between atoms: _92  and  _94
REMARK   40  A    between atoms: _94  and  _95
REMARK   41  A    between atoms: _94  and  _97
REMARK   42  A    between atoms: _97  and  _98
REMARK   43  A    between atoms: _101  and  _103
REMARK   44  A    between atoms: _103  and  _104
REMARK   45  A    between atoms: _103  and  _106
REMARK   46  A    between atoms: _109  and  _111
REMARK   47  A    between atoms: _111  and  _112
REMARK   48  A    between atoms: _111  and  _114
REMARK   49  A    between atoms: _114  and  _115
REMARK   50  A    between atoms: _115  and  _116
REMARK   51  A    between atoms: _118  and  _120
REMARK   52  A    between atoms: _120  and  _121
REMARK   53  A    between atoms: _120  and  _123
REMARK   54  A    between atoms: _123  and  _124
REMARK   55  A    between atoms: _127  and  _129
REMARK   56  A    between atoms: _129  and  _130
REMARK   57  A    between atoms: _132  and  _134
REMARK   58  A    between atoms: _134  and  _135
REMARK   59  A    between atoms: _137  and  _139
REMARK   60  A    between atoms: _139  and  _140
REMARK   61  A    between atoms: _139  and  _142
REMARK   62  A    between atoms: _142  and  _143
REMARK   63  A    between atoms: _146  and  _148
REMARK   64  A    between atoms: _148  and  _149
REMARK   65  A    between atoms: _151  and  _153
REMARK   66  A    between atoms: _153  and  _154
REMARK   67  A    between atoms: _156  and  _158
REMARK   68  A    between atoms: _158  and  _159
REMARK   69  A    between atoms: _158  and  _161
REMARK   70  A    between atoms: _161  and  _162
REMARK   71  A    between atoms: _168  and  _170
REMARK   72  A    between atoms: _170  and  _171
REMARK   73  A    between atoms: _170  and  _173
REMARK   74  A    between atoms: _173  and  _174
REMARK   75  A    between atoms: _177  and  _179
REMARK   76  A    between atoms: _179  and  _180
REMARK   77  A    between atoms: _179  and  _182
REMARK   78  A    between atoms: _185  and  _187
REMARK   79  A    between atoms: _187  and  _188
REMARK   80  A    between atoms: _187  and  _190
REMARK   81  A    between atoms: _190  and  _191
REMARK   82  A    between atoms: _194  and  _196
REMARK   83  A    between atoms: _196  and  _197
REMARK   84  A    between atoms: _196  and  _199
REMARK   85  A    between atoms: _199  and  _200
REMARK   86  A    between atoms: _204  and  _205
REMARK   87  A    between atoms: _210  and  _212
REMARK   88  A    between atoms: _212  and  _213
REMARK   89  A    between atoms: _212  and  _215
REMARK   90  A    between atoms: _218  and  _220
REMARK   91  A    between atoms: _220  and  _221
REMARK   92  A    between atoms: _220  and  _223
REMARK   93  A    between atoms: _223  and  _224
REMARK   94  A    between atoms: _229  and  _231
REMARK   95  A    between atoms: _231  and  _232
REMARK   96  A    between atoms: _231  and  _234
REMARK   97  A    between atoms: _234  and  _235
REMARK   98  A    between atoms: _238  and  _240
REMARK   99  A    between atoms: _240  and  _241
REMARK  100  A    between atoms: _240  and  _243
REMARK  101  A    between atoms: _243  and  _244
REMARK  102  A    between atoms: _247  and  _249
REMARK  103  A    between atoms: _249  and  _250
REMARK  104  A    between atoms: _252  and  _254
REMARK  105  A    between atoms: _254  and  _255
REMARK  106  A    between atoms: _254  and  _257
REMARK  107  A    between atoms: _257  and  _258
REMARK  108  A    between atoms: _258  and  _259
REMARK  109  A    between atoms: _259  and  _260
REMARK  110  A    between atoms: _269  and  _271
REMARK  111  A    between atoms: _271  and  _272
REMARK  112  A    between atoms: _271  and  _274
REMARK  113  A    between atoms: _274  and  _275
REMARK  114  A    between atoms: _280  and  _282
REMARK  115  A    between atoms: _282  and  _283
REMARK  116  A    between atoms: _282  and  _285
REMARK  117  A    between atoms: _285  and  _286
REMARK  118  A    between atoms: _286  and  _287
REMARK  119  A    between atoms: _287  and  _288
REMARK  120  A    between atoms: _297  and  _299
REMARK  121  A    between atoms: _299  and  _300
REMARK  122  A    between atoms: _299  and  _302
REMARK  123  A    between atoms: _302  and  _303
REMARK  124  A    between atoms: _306  and  _308
REMARK  125  A    between atoms: _308  and  _309
REMARK  126  A    between atoms: _308  and  _311
REMARK  127  A    between atoms: _311  and  _312
REMARK  128  A    between atoms: _315  and  _317
REMARK  129  A    between atoms: _317  and  _318
REMARK  130  A    between atoms: _317  and  _320
REMARK  131  A    between atoms: _320  and  _321
REMARK  132  A    between atoms: _324  and  _326
REMARK  133  A    between atoms: _326  and  _327
REMARK  134  A    between atoms: _326  and  _329
REMARK  135  A    between atoms: _329  and  _330
REMARK  136  A    between atoms: _333  and  _335
REMARK  137  A    between atoms: _335  and  _336
REMARK  138  A    between atoms: _338  and  _340
REMARK  139  A    between atoms: _340  and  _341
REMARK  140  A    between atoms: _344  and  _346
REMARK  141  A    between atoms: _346  and  _347
REMARK  142  A    between atoms: _346  and  _349
REMARK  143  A    between atoms: _349  and  _350
REMARK  144  A    between atoms: _353  and  _355
REMARK  145  A    between atoms: _355  and  _356
REMARK  146  A    between atoms: _355  and  _358
REMARK  147  A    between atoms: _358  and  _359
REMARK  148  A    between atoms: _362  and  _364
REMARK  149  A    between atoms: _364  and  _365
REMARK  150  A    between atoms: _364  and  _367
REMARK  151  A    between atoms: _367  and  _368
REMARK  152  A    between atoms: _371  and  _373
REMARK  153  A    between atoms: _373  and  _374
REMARK  154  A    between atoms: _373  and  _376
REMARK  155  A    between atoms: _379  and  _381
REMARK  156  A    between atoms: _381  and  _382
REMARK  157  A    between atoms: _381  and  _384
REMARK  158  A    between atoms: _384  and  _385
REMARK  159  A    between atoms: _388  and  _390
REMARK  160  A    between atoms: _390  and  _391
REMARK  161  A    between atoms: _390  and  _393
REMARK  162  A    between atoms: _393  and  _394
REMARK  163  A    between atoms: _394  and  _395
REMARK  164  A    between atoms: _395  and  _396
REMARK  165  A    between atoms: _396  and  _397
REMARK  166  A    between atoms: _401  and  _403
REMARK  167  A    between atoms: _403  and  _404
REMARK  168  A    between atoms: _403  and  _406
REMARK  169  A    between atoms: _406  and  _407
REMARK  170  A    between atoms: _407  and  _408
REMARK  171  A    between atoms: _410  and  _412
REMARK  172  A    between atoms: _412  and  _413
REMARK  173  A    between atoms: _412  and  _415
REMARK  174  A    between atoms: _415  and  _416
REMARK  175  A    between atoms: _419  and  _421
REMARK  176  A    between atoms: _421  and  _422
REMARK  177  A    between atoms: _424  and  _426
REMARK  178  A    between atoms: _426  and  _427
REMARK  179  A    between atoms: _429  and  _431
REMARK  180  A    between atoms: _431  and  _432
REMARK  181  A    between atoms: _431  and  _434
REMARK  182  A    between atoms: _434  and  _435
REMARK  183  A    between atoms: _438  and  _440
REMARK  184  A    between atoms: _440  and  _441
REMARK  185  A    between atoms: _443  and  _445
REMARK  186  A    between atoms: _445  and  _446
REMARK  187  A    between atoms: _448  and  _450
REMARK  188  A    between atoms: _450  and  _451
REMARK  189  A    between atoms: _450  and  _453
REMARK  190  A    between atoms: _453  and  _454
REMARK  191  A    between atoms: _457  and  _459
REMARK  192  A    between atoms: _459  and  _460
REMARK  193  A    between atoms: _459  and  _462
REMARK  194  A    between atoms: _465  and  _467
REMARK  195  A    between atoms: _467  and  _468
REMARK  196  A    between atoms: _467  and  _470
REMARK  197  A    between atoms: _470  and  _471
REMARK  198  A    between atoms: _474  and  _476
REMARK  199  A    between atoms: _476  and  _477
REMARK  200  A    between atoms: _476  and  _479
REMARK  201  A    between atoms: _479  and  _480
REMARK  202  A    between atoms: _484  and  _485
REMARK  203  A    between atoms: _490  and  _492
REMARK  204  A    between atoms: _492  and  _493
REMARK  205  A    between atoms: _492  and  _495
REMARK  206  A    between atoms: _498  and  _500
REMARK  207  A    between atoms: _500  and  _501
REMARK  208  A    between atoms: _500  and  _503
REMARK  209  A    between atoms: _503  and  _504
REMARK  210  A    between atoms: _509  and  _511
REMARK  211  A    between atoms: _511  and  _512
REMARK  212  A    between atoms: _511  and  _514
REMARK  213  A    between atoms: _514  and  _515
REMARK  214  A    between atoms: _518  and  _520
REMARK  215  A    between atoms: _520  and  _521
REMARK  216  A    between atoms: _520  and  _523
REMARK  217  A    between atoms: _523  and  _524
REMARK  218  A    between atoms: _527  and  _529
REMARK  219  A    between atoms: _529  and  _530
REMARK  220  A    between atoms: _532  and  _534
REMARK  221  A    between atoms: _534  and  _535
REMARK  222  A    between atoms: _534  and  _537
REMARK  223  A    between atoms: _537  and  _538
REMARK  224  A    between atoms: _538  and  _539
REMARK  225  A    between atoms: _539  and  _540
REMARK  226  A    between atoms: _549  and  _551
REMARK  227  A    between atoms: _551  and  _552
REMARK  228  A    between atoms: _551  and  _554
REMARK  229  A    between atoms: _554  and  _555
REMARK                            x       y       z     vdW  Elec       q    Type
REMARK                         _______ _______ _______ _____ _____    ______ ____
ROOT
ATOM      1  O   HOH     1      17.383  39.717  20.626  0.00  0.00    +0.000 OA
ENDROOT
TORSDOF 0
REMARK  Name = ../refined-set-2016/2avo/2avo_pocket.pdb
REMARK  229 active torsions:
REMARK  status: ('A' for Active; 'I' for Inactive)
REMARK    1  A    between atoms: _1  and  _3
REMARK    2  A    between atoms: _3  and  _4
REMARK    3  A    between atoms: _3  and  _6
REMARK    4  A    between atoms: _6  and  _7
REMARK    5  A    between atoms: _7  and  _8
REMARK    6  A    between atoms: _8  and  _9
REMARK    7  A    between atoms: _18  and  _20
REMARK    8  A    between atoms: _20  and  _21
REMARK    9  A    between atoms: _20  and  _23
REMARK   10  A    between atoms: _23  and  _24
REMARK   11  A    between atoms: _27  and  _29
REMARK   12  A    between atoms: _29  and  _30
REMARK   13  A    between atoms: _29  and  _32
REMARK   14  A    between atoms: _32  and  _33
REMARK   15  A    between atoms: _36  and  _38
REMARK   16  A    between atoms: _38  and  _39
REMARK   17  A    between atoms: _38  and  _41
REMARK   18  A    between atoms: _41  and  _42
REMARK   19  A    between atoms: _45  and  _47
REMARK   20  A    between atoms: _47  and  _48
REMARK   21  A    between atoms: _47  and  _50
REMARK   22  A    between atoms: _50  and  _51
REMARK   23  A    between atoms: _54  and  _56
REMARK   24  A    between atoms: _56  and  _57
REMARK   25  A    between atoms: _56  and  _59
REMARK   26  A    between atoms: _59  and  _60
REMARK   27  A    between atoms: _63  and  _65
REMARK   28  A    between atoms: _65  and  _66
REMARK   29  A    between atoms: _68  and  _70
REMARK   30  A    between atoms: _70  and  _71
REMARK   31  A    between atoms: _74  and  _76
REMARK   32  A    between atoms: _76  and  _77
REMARK   33  A    between atoms: _76  and  _79
REMARK   34  A    between atoms: _79  and  _80
REMARK   35  A    between atoms: _83  and  _85
REMARK   36  A    between atoms: _85  and  _86
REMARK   37  A    between atoms: _85  and  _88
REMARK   38  A    between atoms: _88  and  _89
REMARK   39  A    between atoms: _92  and  _94
REMARK   40  A    between atoms: _94  and  _95
REMARK   41  A    between atoms: _94  and  _97
REMARK   42  A    between atoms: _97  and  _98
REMARK   43  A    between atoms: _101  and  _103
REMARK   44  A    between atoms: _103  and  _104
REMARK   45  A    between atoms: _103  and  _106
REMARK   46  A    between atoms: _109  and  _111
REMARK   47  A    between atoms: _111  and  _112
REMARK   48  A    between atoms: _111  and  _114
REMARK   49  A    between atoms: _114  and  _115
REMARK   50  A    between atoms: _115  and  _116
REMARK   51  A    between atoms: _118  and  _120
REMARK   52  A    between atoms: _120  and  _121
REMARK   53  A    between atoms: _120  and  _123
REMARK   54  A    between atoms: _123  and  _124
REMARK   55  A    between atoms: _127  and  _129
REMARK   56  A    between atoms: _129  and  _130
REMARK   57  A    between atoms: _132  and  _134
REMARK   58  A    between atoms: _134  and  _135
REMARK   59  A    between atoms: _137  and  _139
REMARK   60  A    between atoms: _139  and  _140
REMARK   61  A    between atoms: _139  and  _142
REMARK   62  A    between atoms: _142  and  _143
REMARK   63  A    between atoms: _146  and  _148
REMARK   64  A    between atoms: _148  and  _149
REMARK   65  A    between atoms: _151  and  _153
REMARK   66  A    between atoms: _153  and  _154
REMARK   67  A    between atoms: _156  and  _158
REMARK   68  A    between atoms: _158  and  _159
REMARK   69  A    between atoms: _158  and  _161
REMARK   70  A    between atoms: _161  and  _162
REMARK   71  A    between atoms: _168  and  _170
REMARK   72  A    between atoms: _170  and  _171
REMARK   73  A    between atoms: _170  and  _173
REMARK   74  A    between atoms: _173  and  _174
REMARK   75  A    between atoms: _177  and  _179
REMARK   76  A    between atoms: _179  and  _180
REMARK   77  A    between atoms: _179  and  _182
REMARK   78  A    between atoms: _185  and  _187
REMARK   79  A    between atoms: _187  and  _188
REMARK   80  A    between atoms: _187  and  _190
REMARK   81  A    between atoms: _190  and  _191
REMARK   82  A    between atoms: _194  and  _196
REMARK   83  A    between atoms: _196  and  _197
REMARK   84  A    between atoms: _196  and  _199
REMARK   85  A    between atoms: _199  and  _200
REMARK   86  A    between atoms: _204  and  _205
REMARK   87  A    between atoms: _210  and  _212
REMARK   88  A    between atoms: _212  and  _213
REMARK   89  A    between atoms: _212  and  _215
REMARK   90  A    between atoms: _218  and  _220
REMARK   91  A    between atoms: _220  and  _221
REMARK   92  A    between atoms: _220  and  _223
REMARK   93  A    between atoms: _223  and  _224
REMARK   94  A    between atoms: _229  and  _231
REMARK   95  A    between atoms: _231  and  _232
REMARK   96  A    between atoms: _231  and  _234
REMARK   97  A    between atoms: _234  and  _235
REMARK   98  A    between atoms: _238  and  _240
REMARK   99  A    between atoms: _240  and  _241
REMARK  100  A    between atoms: _240  and  _243
REMARK  101  A    between atoms: _243  and  _244
REMARK  102  A    between atoms: _247  and  _249
REMARK  103  A    between atoms: _249  and  _250
REMARK  104  A    between atoms: _252  and  _254
REMARK  105  A    between atoms: _254  and  _255
REMARK  106  A    between atoms: _254  and  _257
REMARK  107  A    between atoms: _257  and  _258
REMARK  108  A    between atoms: _258  and  _259
REMARK  109  A    between atoms: _259  and  _260
REMARK  110  A    between atoms: _269  and  _271
REMARK  111  A    between atoms: _271  and  _272
REMARK  112  A    between atoms: _271  and  _274
REMARK  113  A    between atoms: _274  and  _275
REMARK  114  A    between atoms: _280  and  _282
REMARK  115  A    between atoms: _282  and  _283
REMARK  116  A    between atoms: _282  and  _285
REMARK  117  A    between atoms: _285  and  _286
REMARK  118  A    between atoms: _286  and  _287
REMARK  119  A    between atoms: _287  and  _288
REMARK  120  A    between atoms: _297  and  _299
REMARK  121  A    between atoms: _299  and  _300
REMARK  122  A    between atoms: _299  and  _302
REMARK  123  A    between atoms: _302  and  _303
REMARK  124  A    between atoms: _306  and  _308
REMARK  125  A    between atoms: _308  and  _309
REMARK  126  A    between atoms: _308  and  _311
REMARK  127  A    between atoms: _311  and  _312
REMARK  128  A    between atoms: _315  and  _317
REMARK  129  A    between atoms: _317  and  _318
REMARK  130  A    between atoms: _317  and  _320
REMARK  131  A    between atoms: _320  and  _321
REMARK  132  A    between atoms: _324  and  _326
REMARK  133  A    between atoms: _326  and  _327
REMARK  134  A    between atoms: _326  and  _329
REMARK  135  A    between atoms: _329  and  _330
REMARK  136  A    between atoms: _333  and  _335
REMARK  137  A    between atoms: _335  and  _336
REMARK  138  A    between atoms: _338  and  _340
REMARK  139  A    between atoms: _340  and  _341
REMARK  140  A    between atoms: _344  and  _346
REMARK  141  A    between atoms: _346  and  _347
REMARK  142  A    between atoms: _346  and  _349
REMARK  143  A    between atoms: _349  and  _350
REMARK  144  A    between atoms: _353  and  _355
REMARK  145  A    between atoms: _355  and  _356
REMARK  146  A    between atoms: _355  and  _358
REMARK  147  A    between atoms: _358  and  _359
REMARK  148  A    between atoms: _362  and  _364
REMARK  149  A    between atoms: _364  and  _365
REMARK  150  A    between atoms: _364  and  _367
REMARK  151  A    between atoms: _367  and  _368
REMARK  152  A    between atoms: _371  and  _373
REMARK  153  A    between atoms: _373  and  _374
REMARK  154  A    between atoms: _373  and  _376
REMARK  155  A    between atoms: _379  and  _381
REMARK  156  A    between atoms: _381  and  _382
REMARK  157  A    between atoms: _381  and  _384
REMARK  158  A    between atoms: _384  and  _385
REMARK  159  A    between atoms: _388  and  _390
REMARK  160  A    between atoms: _390  and  _391
REMARK  161  A    between atoms: _390  and  _393
REMARK  162  A    between atoms: _393  and  _394
REMARK  163  A    between atoms: _394  and  _395
REMARK  164  A    between atoms: _395  and  _396
REMARK  165  A    between atoms: _396  and  _397
REMARK  166  A    between atoms: _401  and  _403
REMARK  167  A    between atoms: _403  and  _404
REMARK  168  A    between atoms: _403  and  _406
REMARK  169  A    between atoms: _406  and  _407
REMARK  170  A    between atoms: _407  and  _408
REMARK  171  A    between atoms: _410  and  _412
REMARK  172  A    between atoms: _412  and  _413
REMARK  173  A    between atoms: _412  and  _415
REMARK  174  A    between atoms: _415  and  _416
REMARK  175  A    between atoms: _419  and  _421
REMARK  176  A    between atoms: _421  and  _422
REMARK  177  A    between atoms: _424  and  _426
REMARK  178  A    between atoms: _426  and  _427
REMARK  179  A    between atoms: _429  and  _431
REMARK  180  A    between atoms: _431  and  _432
REMARK  181  A    between atoms: _431  and  _434
REMARK  182  A    between atoms: _434  and  _435
REMARK  183  A    between atoms: _438  and  _440
REMARK  184  A    between atoms: _440  and  _441
REMARK  185  A    between atoms: _443  and  _445
REMARK  186  A    between atoms: _445  and  _446
REMARK  187  A    between atoms: _448  and  _450
REMARK  188  A    between atoms: _450  and  _451
REMARK  189  A    between atoms: _450  and  _453
REMARK  190  A    between atoms: _453  and  _454
REMARK  191  A    between atoms: _457  and  _459
REMARK  192  A    between atoms: _459  and  _460
REMARK  193  A    between atoms: _459  and  _462
REMARK  194  A    between atoms: _465  and  _467
REMARK  195  A    between atoms: _467  and  _468
REMARK  196  A    between atoms: _467  and  _470
REMARK  197  A    between atoms: _470  and  _471
REMARK  198  A    between atoms: _474  and  _476
REMARK  199  A    between atoms: _476  and  _477
REMARK  200  A    between atoms: _476  and  _479
REMARK  201  A    between atoms: _479  and  _480
REMARK  202  A    between atoms: _484  and  _485
REMARK  203  A    between atoms: _490  and  _492
REMARK  204  A    between atoms: _492  and  _493
REMARK  205  A    between atoms: _492  and  _495
REMARK  206  A    between atoms: _498  and  _500
REMARK  207  A    between atoms: _500  and  _501
REMARK  208  A    between atoms: _500  and  _503
REMARK  209  A    between atoms: _503  and  _504
REMARK  210  A    between atoms: _509  and  _511
REMARK  211  A    between atoms: _511  and  _512
REMARK  212  A    between atoms: _511  and  _514
REMARK  213  A    between atoms: _514  and  _515
REMARK  214  A    between atoms: _518  and  _520
REMARK  215  A    between atoms: _520  and  _521
REMARK  216  A    between atoms: _520  and  _523
REMARK  217  A    between atoms: _523  and  _524
REMARK  218  A    between atoms: _527  and  _529
REMARK  219  A    between atoms: _529  and  _530
REMARK  220  A    between atoms: _532  and  _534
REMARK  221  A    between atoms: _534  and  _535
REMARK  222  A    between atoms: _534  and  _537
REMARK  223  A    between atoms: _537  and  _538
REMARK  224  A    between atoms: _538  and  _539
REMARK  225  A    between atoms: _539  and  _540
REMARK  226  A    between atoms: _549  and  _551
REMARK  227  A    between atoms: _551  and  _552
REMARK  228  A    between atoms: _551  and  _554
REMARK  229  A    between atoms: _554  and  _555
REMARK                            x       y       z     vdW  Elec       q    Type
REMARK                         _______ _______ _______ _____ _____    ______ ____
ROOT
ATOM      1  O   HOH     1      12.416  30.806   5.419  0.00  0.00    +0.000 OA
ENDROOT
TORSDOF 0
REMARK  Name = ../refined-set-2016/2avo/2avo_pocket.pdb
REMARK  229 active torsions:
REMARK  status: ('A' for Active; 'I' for Inactive)
REMARK    1  A    between atoms: _1  and  _3
REMARK    2  A    between atoms: _3  and  _4
REMARK    3  A    between atoms: _3  and  _6
REMARK    4  A    between atoms: _6  and  _7
REMARK    5  A    between atoms: _7  and  _8
REMARK    6  A    between atoms: _8  and  _9
REMARK    7  A    between atoms: _18  and  _20
REMARK    8  A    between atoms: _20  and  _21
REMARK    9  A    between atoms: _20  and  _23
REMARK   10  A    between atoms: _23  and  _24
REMARK   11  A    between atoms: _27  and  _29
REMARK   12  A    between atoms: _29  and  _30
REMARK   13  A    between atoms: _29  and  _32
REMARK   14  A    between atoms: _32  and  _33
REMARK   15  A    between atoms: _36  and  _38
REMARK   16  A    between atoms: _38  and  _39
REMARK   17  A    between atoms: _38  and  _41
REMARK   18  A    between atoms: _41  and  _42
REMARK   19  A    between atoms: _45  and  _47
REMARK   20  A    between atoms: _47  and  _48
REMARK   21  A    between atoms: _47  and  _50
REMARK   22  A    between atoms: _50  and  _51
REMARK   23  A    between atoms: _54  and  _56
REMARK   24  A    between atoms: _56  and  _57
REMARK   25  A    between atoms: _56  and  _59
REMARK   26  A    between atoms: _59  and  _60
REMARK   27  A    between atoms: _63  and  _65
REMARK   28  A    between atoms: _65  and  _66
REMARK   29  A    between atoms: _68  and  _70
REMARK   30  A    between atoms: _70  and  _71
REMARK   31  A    between atoms: _74  and  _76
REMARK   32  A    between atoms: _76  and  _77
REMARK   33  A    between atoms: _76  and  _79
REMARK   34  A    between atoms: _79  and  _80
REMARK   35  A    between atoms: _83  and  _85
REMARK   36  A    between atoms: _85  and  _86
REMARK   37  A    between atoms: _85  and  _88
REMARK   38  A    between atoms: _88  and  _89
REMARK   39  A    between atoms: _92  and  _94
REMARK   40  A    between atoms: _94  and  _95
REMARK   41  A    between atoms: _94  and  _97
REMARK   42  A    between atoms: _97  and  _98
REMARK   43  A    between atoms: _101  and  _103
REMARK   44  A    between atoms: _103  and  _104
REMARK   45  A    between atoms: _103  and  _106
REMARK   46  A    between atoms: _109  and  _111
REMARK   47  A    between atoms: _111  and  _112
REMARK   48  A    between atoms: _111  and  _114
REMARK   49  A    between atoms: _114  and  _115
REMARK   50  A    between atoms: _115  and  _116
REMARK   51  A    between atoms: _118  and  _120
REMARK   52  A    between atoms: _120  and  _121
REMARK   53  A    between atoms: _120  and  _123
REMARK   54  A    between atoms: _123  and  _124
REMARK   55  A    between atoms: _127  and  _129
REMARK   56  A    between atoms: _129  and  _130
REMARK   57  A    between atoms: _132  and  _134
REMARK   58  A    between atoms: _134  and  _135
REMARK   59  A    between atoms: _137  and  _139
REMARK   60  A    between atoms: _139  and  _140
REMARK   61  A    between atoms: _139  and  _142
REMARK   62  A    between atoms: _142  and  _143
REMARK   63  A    between atoms: _146  and  _148
REMARK   64  A    between atoms: _148  and  _149
REMARK   65  A    between atoms: _151  and  _153
REMARK   66  A    between atoms: _153  and  _154
REMARK   67  A    between atoms: _156  and  _158
REMARK   68  A    between atoms: _158  and  _159
REMARK   69  A    between atoms: _158  and  _161
REMARK   70  A    between atoms: _161  and  _162
REMARK   71  A    between atoms: _168  and  _170
REMARK   72  A    between atoms: _170  and  _171
REMARK   73  A    between atoms: _170  and  _173
REMARK   74  A    between atoms: _173  and  _174
REMARK   75  A    between atoms: _177  and  _179
REMARK   76  A    between atoms: _179  and  _180
REMARK   77  A    between atoms: _179  and  _182
REMARK   78  A    between atoms: _185  and  _187
REMARK   79  A    between atoms: _187  and  _188
REMARK   80  A    between atoms: _187  and  _190
REMARK   81  A    between atoms: _190  and  _191
REMARK   82  A    between atoms: _194  and  _196
REMARK   83  A    between atoms: _196  and  _197
REMARK   84  A    between atoms: _196  and  _199
REMARK   85  A    between atoms: _199  and  _200
REMARK   86  A    between atoms: _204  and  _205
REMARK   87  A    between atoms: _210  and  _212
REMARK   88  A    between atoms: _212  and  _213
REMARK   89  A    between atoms: _212  and  _215
REMARK   90  A    between atoms: _218  and  _220
REMARK   91  A    between atoms: _220  and  _221
REMARK   92  A    between atoms: _220  and  _223
REMARK   93  A    between atoms: _223  and  _224
REMARK   94  A    between atoms: _229  and  _231
REMARK   95  A    between atoms: _231  and  _232
REMARK   96  A    between atoms: _231  and  _234
REMARK   97  A    between atoms: _234  and  _235
REMARK   98  A    between atoms: _238  and  _240
REMARK   99  A    between atoms: _240  and  _241
REMARK  100  A    between atoms: _240  and  _243
REMARK  101  A    between atoms: _243  and  _244
REMARK  102  A    between atoms: _247  and  _249
REMARK  103  A    between atoms: _249  and  _250
REMARK  104  A    between atoms: _252  and  _254
REMARK  105  A    between atoms: _254  and  _255
REMARK  106  A    between atoms: _254  and  _257
REMARK  107  A    between atoms: _257  and  _258
REMARK  108  A    between atoms: _258  and  _259
REMARK  109  A    between atoms: _259  and  _260
REMARK  110  A    between atoms: _269  and  _271
REMARK  111  A    between atoms: _271  and  _272
REMARK  112  A    between atoms: _271  and  _274
REMARK  113  A    between atoms: _274  and  _275
REMARK  114  A    between atoms: _280  and  _282
REMARK  115  A    between atoms: _282  and  _283
REMARK  116  A    between atoms: _282  and  _285
REMARK  117  A    between atoms: _285  and  _286
REMARK  118  A    between atoms: _286  and  _287
REMARK  119  A    between atoms: _287  and  _288
REMARK  120  A    between atoms: _297  and  _299
REMARK  121  A    between atoms: _299  and  _300
REMARK  122  A    between atoms: _299  and  _302
REMARK  123  A    between atoms: _302  and  _303
REMARK  124  A    between atoms: _306  and  _308
REMARK  125  A    between atoms: _308  and  _309
REMARK  126  A    between atoms: _308  and  _311
REMARK  127  A    between atoms: _311  and  _312
REMARK  128  A    between atoms: _315  and  _317
REMARK  129  A    between atoms: _317  and  _318
REMARK  130  A    between atoms: _317  and  _320
REMARK  131  A    between atoms: _320  and  _321
REMARK  132  A    between atoms: _324  and  _326
REMARK  133  A    between atoms: _326  and  _327
REMARK  134  A    between atoms: _326  and  _329
REMARK  135  A    between atoms: _329  and  _330
REMARK  136  A    between atoms: _333  and  _335
REMARK  137  A    between atoms: _335  and  _336
REMARK  138  A    between atoms: _338  and  _340
REMARK  139  A    between atoms: _340  and  _341
REMARK  140  A    between atoms: _344  and  _346
REMARK  141  A    between atoms: _346  and  _347
REMARK  142  A    between atoms: _346  and  _349
REMARK  143  A    between atoms: _349  and  _350
REMARK  144  A    between atoms: _353  and  _355
REMARK  145  A    between atoms: _355  and  _356
REMARK  146  A    between atoms: _355  and  _358
REMARK  147  A    between atoms: _358  and  _359
REMARK  148  A    between atoms: _362  and  _364
REMARK  149  A    between atoms: _364  and  _365
REMARK  150  A    between atoms: _364  and  _367
REMARK  151  A    between atoms: _367  and  _368
REMARK  152  A    between atoms: _371  and  _373
REMARK  153  A    between atoms: _373  and  _374
REMARK  154  A    between atoms: _373  and  _376
REMARK  155  A    between atoms: _379  and  _381
REMARK  156  A    between atoms: _381  and  _382
REMARK  157  A    between atoms: _381  and  _384
REMARK  158  A    between atoms: _384  and  _385
REMARK  159  A    between atoms: _388  and  _390
REMARK  160  A    between atoms: _390  and  _391
REMARK  161  A    between atoms: _390  and  _393
REMARK  162  A    between atoms: _393  and  _394
REMARK  163  A    between atoms: _394  and  _395
REMARK  164  A    between atoms: _395  and  _396
REMARK  165  A    between atoms: _396  and  _397
REMARK  166  A    between atoms: _401  and  _403
REMARK  167  A    between atoms: _403  and  _404
REMARK  168  A    between atoms: _403  and  _406
REMARK  169  A    between atoms: _406  and  _407
REMARK  170  A    between atoms: _407  and  _408
REMARK  171  A    between atoms: _410  and  _412
REMARK  172  A    between atoms: _412  and  _413
REMARK  173  A    between atoms: _412  and  _415
REMARK  174  A    between atoms: _415  and  _416
REMARK  175  A    between atoms: _419  and  _421
REMARK  176  A    between atoms: _421  and  _422
REMARK  177  A    between atoms: _424  and  _426
REMARK  178  A    between atoms: _426  and  _427
REMARK  179  A    between atoms: _429  and  _431
REMARK  180  A    between atoms: _431  and  _432
REMARK  181  A    between atoms: _431  and  _434
REMARK  182  A    between atoms: _434  and  _435
REMARK  183  A    between atoms: _438  and  _440
REMARK  184  A    between atoms: _440  and  _441
REMARK  185  A    between atoms: _443  and  _445
REMARK  186  A    between atoms: _445  and  _446
REMARK  187  A    between atoms: _448  and  _450
REMARK  188  A    between atoms: _450  and  _451
REMARK  189  A    between atoms: _450  and  _453
REMARK  190  A    between atoms: _453  and  _454
REMARK  191  A    between atoms: _457  and  _459
REMARK  192  A    between atoms: _459  and  _460
REMARK  193  A    between atoms: _459  and  _462
REMARK  194  A    between atoms: _465  and  _467
REMARK  195  A    between atoms: _467  and  _468
REMARK  196  A    between atoms: _467  and  _470
REMARK  197  A    between atoms: _470  and  _471
REMARK  198  A    between atoms: _474  and  _476
REMARK  199  A    between atoms: _476  and  _477
REMARK  200  A    between atoms: _476  and  _479
REMARK  201  A    between atoms: _479  and  _480
REMARK  202  A    between atoms: _484  and  _485
REMARK  203  A    between atoms: _490  and  _492
REMARK  204  A    between atoms: _492  and  _493
REMARK  205  A    between atoms: _492  and  _495
REMARK  206  A    between atoms: _498  and  _500
REMARK  207  A    between atoms: _500  and  _501
REMARK  208  A    between atoms: _500  and  _503
REMARK  209  A    between atoms: _503  and  _504
REMARK  210  A    between atoms: _509  and  _511
REMARK  211  A    between atoms: _511  and  _512
REMARK  212  A    between atoms: _511  and  _514
REMARK  213  A    between atoms: _514  and  _515
REMARK  214  A    between atoms: _518  and  _520
REMARK  215  A    between atoms: _520  and  _521
REMARK  216  A    between atoms: _520  and  _523
REMARK  217  A    between atoms: _523  and  _524
REMARK  218  A    between atoms: _527  and  _529
REMARK  219  A    between atoms: _529  and  _530
REMARK  220  A    between atoms: _532  and  _534
REMARK  221  A    between atoms: _534  and  _535
REMARK  222  A    between atoms: _534  and  _537
REMARK  223  A    between atoms: _537  and  _538
REMARK  224  A    between atoms: _538  and  _539
REMARK  225  A    between atoms: _539  and  _540
REMARK  226  A    between atoms: _549  and  _551
REMARK  227  A    between atoms: _551  and  _552
REMARK  228  A    between atoms: _551  and  _554
REMARK  229  A    between atoms: _554  and  _555
REMARK                            x       y       z     vdW  Elec       q    Type
REMARK                         _______ _______ _______ _____ _____    ______ ____
ROOT
ATOM      1  O   HOH     1      19.831  23.586   6.897  0.00  0.00    +0.000 OA
ENDROOT
TORSDOF 0
REMARK  Name = ../refined-set-2016/2avo/2avo_pocket.pdb
REMARK  229 active torsions:
REMARK  status: ('A' for Active; 'I' for Inactive)
REMARK    1  A    between atoms: _1  and  _3
REMARK    2  A    between atoms: _3  and  _4
REMARK    3  A    between atoms: _3  and  _6
REMARK    4  A    between atoms: _6  and  _7
REMARK    5  A    between atoms: _7  and  _8
REMARK    6  A    between atoms: _8  and  _9
REMARK    7  A    between atoms: _18  and  _20
REMARK    8  A    between atoms: _20  and  _21
REMARK    9  A    between atoms: _20  and  _23
REMARK   10  A    between atoms: _23  and  _24
REMARK   11  A    between atoms: _27  and  _29
REMARK   12  A    between atoms: _29  and  _30
REMARK   13  A    between atoms: _29  and  _32
REMARK   14  A    between atoms: _32  and  _33
REMARK   15  A    between atoms: _36  and  _38
REMARK   16  A    between atoms: _38  and  _39
REMARK   17  A    between atoms: _38  and  _41
REMARK   18  A    between atoms: _41  and  _42
REMARK   19  A    between atoms: _45  and  _47
REMARK   20  A    between atoms: _47  and  _48
REMARK   21  A    between atoms: _47  and  _50
REMARK   22  A    between atoms: _50  and  _51
REMARK   23  A    between atoms: _54  and  _56
REMARK   24  A    between atoms: _56  and  _57
REMARK   25  A    between atoms: _56  and  _59
REMARK   26  A    between atoms: _59  and  _60
REMARK   27  A    between atoms: _63  and  _65
REMARK   28  A    between atoms: _65  and  _66
REMARK   29  A    between atoms: _68  and  _70
REMARK   30  A    between atoms: _70  and  _71
REMARK   31  A    between atoms: _74  and  _76
REMARK   32  A    between atoms: _76  and  _77
REMARK   33  A    between atoms: _76  and  _79
REMARK   34  A    between atoms: _79  and  _80
REMARK   35  A    between atoms: _83  and  _85
REMARK   36  A    between atoms: _85  and  _86
REMARK   37  A    between atoms: _85  and  _88
REMARK   38  A    between atoms: _88  and  _89
REMARK   39  A    between atoms: _92  and  _94
REMARK   40  A    between atoms: _94  and  _95
REMARK   41  A    between atoms: _94  and  _97
REMARK   42  A    between atoms: _97  and  _98
REMARK   43  A    between atoms: _101  and  _103
REMARK   44  A    between atoms: _103  and  _104
REMARK   45  A    between atoms: _103  and  _106
REMARK   46  A    between atoms: _109  and  _111
REMARK   47  A    between atoms: _111  and  _112
REMARK   48  A    between atoms: _111  and  _114
REMARK   49  A    between atoms: _114  and  _115
REMARK   50  A    between atoms: _115  and  _116
REMARK   51  A    between atoms: _118  and  _120
REMARK   52  A    between atoms: _120  and  _121
REMARK   53  A    between atoms: _120  and  _123
REMARK   54  A    between atoms: _123  and  _124
REMARK   55  A    between atoms: _127  and  _129
REMARK   56  A    between atoms: _129  and  _130
REMARK   57  A    between atoms: _132  and  _134
REMARK   58  A    between atoms: _134  and  _135
REMARK   59  A    between atoms: _137  and  _139
REMARK   60  A    between atoms: _139  and  _140
REMARK   61  A    between atoms: _139  and  _142
REMARK   62  A    between atoms: _142  and  _143
REMARK   63  A    between atoms: _146  and  _148
REMARK   64  A    between atoms: _148  and  _149
REMARK   65  A    between atoms: _151  and  _153
REMARK   66  A    between atoms: _153  and  _154
REMARK   67  A    between atoms: _156  and  _158
REMARK   68  A    between atoms: _158  and  _159
REMARK   69  A    between atoms: _158  and  _161
REMARK   70  A    between atoms: _161  and  _162
REMARK   71  A    between atoms: _168  and  _170
REMARK   72  A    between atoms: _170  and  _171
REMARK   73  A    between atoms: _170  and  _173
REMARK   74  A    between atoms: _173  and  _174
REMARK   75  A    between atoms: _177  and  _179
REMARK   76  A    between atoms: _179  and  _180
REMARK   77  A    between atoms: _179  and  _182
REMARK   78  A    between atoms: _185  and  _187
REMARK   79  A    between atoms: _187  and  _188
REMARK   80  A    between atoms: _187  and  _190
REMARK   81  A    between atoms: _190  and  _191
REMARK   82  A    between atoms: _194  and  _196
REMARK   83  A    between atoms: _196  and  _197
REMARK   84  A    between atoms: _196  and  _199
REMARK   85  A    between atoms: _199  and  _200
REMARK   86  A    between atoms: _204  and  _205
REMARK   87  A    between atoms: _210  and  _212
REMARK   88  A    between atoms: _212  and  _213
REMARK   89  A    between atoms: _212  and  _215
REMARK   90  A    between atoms: _218  and  _220
REMARK   91  A    between atoms: _220  and  _221
REMARK   92  A    between atoms: _220  and  _223
REMARK   93  A    between atoms: _223  and  _224
REMARK   94  A    between atoms: _229  and  _231
REMARK   95  A    between atoms: _231  and  _232
REMARK   96  A    between atoms: _231  and  _234
REMARK   97  A    between atoms: _234  and  _235
REMARK   98  A    between atoms: _238  and  _240
REMARK   99  A    between atoms: _240  and  _241
REMARK  100  A    between atoms: _240  and  _243
REMARK  101  A    between atoms: _243  and  _244
REMARK  102  A    between atoms: _247  and  _249
REMARK  103  A    between atoms: _249  and  _250
REMARK  104  A    between atoms: _252  and  _254
REMARK  105  A    between atoms: _254  and  _255
REMARK  106  A    between atoms: _254  and  _257
REMARK  107  A    between atoms: _257  and  _258
REMARK  108  A    between atoms: _258  and  _259
REMARK  109  A    between atoms: _259  and  _260
REMARK  110  A    between atoms: _269  and  _271
REMARK  111  A    between atoms: _271  and  _272
REMARK  112  A    between atoms: _271  and  _274
REMARK  113  A    between atoms: _274  and  _275
REMARK  114  A    between atoms: _280  and  _282
REMARK  115  A    between atoms: _282  and  _283
REMARK  116  A    between atoms: _282  and  _285
REMARK  117  A    between atoms: _285  and  _286
REMARK  118  A    between atoms: _286  and  _287
REMARK  119  A    between atoms: _287  and  _288
REMARK  120  A    between atoms: _297  and  _299
REMARK  121  A    between atoms: _299  and  _300
REMARK  122  A    between atoms: _299  and  _302
REMARK  123  A    between atoms: _302  and  _303
REMARK  124  A    between atoms: _306  and  _308
REMARK  125  A    between atoms: _308  and  _309
REMARK  126  A    between atoms: _308  and  _311
REMARK  127  A    between atoms: _311  and  _312
REMARK  128  A    between atoms: _315  and  _317
REMARK  129  A    between atoms: _317  and  _318
REMARK  130  A    between atoms: _317  and  _320
REMARK  131  A    between atoms: _320  and  _321
REMARK  132  A    between atoms: _324  and  _326
REMARK  133  A    between atoms: _326  and  _327
REMARK  134  A    between atoms: _326  and  _329
REMARK  135  A    between atoms: _329  and  _330
REMARK  136  A    between atoms: _333  and  _335
REMARK  137  A    between atoms: _335  and  _336
REMARK  138  A    between atoms: _338  and  _340
REMARK  139  A    between atoms: _340  and  _341
REMARK  140  A    between atoms: _344  and  _346
REMARK  141  A    between atoms: _346  and  _347
REMARK  142  A    between atoms: _346  and  _349
REMARK  143  A    between atoms: _349  and  _350
REMARK  144  A    between atoms: _353  and  _355
REMARK  145  A    between atoms: _355  and  _356
REMARK  146  A    between atoms: _355  and  _358
REMARK  147  A    between atoms: _358  and  _359
REMARK  148  A    between atoms: _362  and  _364
REMARK  149  A    between atoms: _364  and  _365
REMARK  150  A    between atoms: _364  and  _367
REMARK  151  A    between atoms: _367  and  _368
REMARK  152  A    between atoms: _371  and  _373
REMARK  153  A    between atoms: _373  and  _374
REMARK  154  A    between atoms: _373  and  _376
REMARK  155  A    between atoms: _379  and  _381
REMARK  156  A    between atoms: _381  and  _382
REMARK  157  A    between atoms: _381  and  _384
REMARK  158  A    between atoms: _384  and  _385
REMARK  159  A    between atoms: _388  and  _390
REMARK  160  A    between atoms: _390  and  _391
REMARK  161  A    between atoms: _390  and  _393
REMARK  162  A    between atoms: _393  and  _394
REMARK  163  A    between atoms: _394  and  _395
REMARK  164  A    between atoms: _395  and  _396
REMARK  165  A    between atoms: _396  and  _397
REMARK  166  A    between atoms: _401  and  _403
REMARK  167  A    between atoms: _403  and  _404
REMARK  168  A    between atoms: _403  and  _406
REMARK  169  A    between atoms: _406  and  _407
REMARK  170  A    between atoms: _407  and  _408
REMARK  171  A    between atoms: _410  and  _412
REMARK  172  A    between atoms: _412  and  _413
REMARK  173  A    between atoms: _412  and  _415
REMARK  174  A    between atoms: _415  and  _416
REMARK  175  A    between atoms: _419  and  _421
REMARK  176  A    between atoms: _421  and  _422
REMARK  177  A    between atoms: _424  and  _426
REMARK  178  A    between atoms: _426  and  _427
REMARK  179  A    between atoms: _429  and  _431
REMARK  180  A    between atoms: _431  and  _432
REMARK  181  A    between atoms: _431  and  _434
REMARK  182  A    between atoms: _434  and  _435
REMARK  183  A    between atoms: _438  and  _440
REMARK  184  A    between atoms: _440  and  _441
REMARK  185  A    between atoms: _443  and  _445
REMARK  186  A    between atoms: _445  and  _446
REMARK  187  A    between atoms: _448  and  _450
REMARK  188  A    between atoms: _450  and  _451
REMARK  189  A    between atoms: _450  and  _453
REMARK  190  A    between atoms: _453  and  _454
REMARK  191  A    between atoms: _457  and  _459
REMARK  192  A    between atoms: _459  and  _460
REMARK  193  A    between atoms: _459  and  _462
REMARK  194  A    between atoms: _465  and  _467
REMARK  195  A    between atoms: _467  and  _468
REMARK  196  A    between atoms: _467  and  _470
REMARK  197  A    between atoms: _470  and  _471
REMARK  198  A    between atoms: _474  and  _476
REMARK  199  A    between atoms: _476  and  _477
REMARK  200  A    between atoms: _476  and  _479
REMARK  201  A    between atoms: _479  and  _480
REMARK  202  A    between atoms: _484  and  _485
REMARK  203  A    between atoms: _490  and  _492
REMARK  204  A    between atoms: _492  and  _493
REMARK  205  A    between atoms: _492  and  _495
REMARK  206  A    between atoms: _498  and  _500
REMARK  207  A    between atoms: _500  and  _501
REMARK  208  A    between atoms: _500  and  _503
REMARK  209  A    between atoms: _503  and  _504
REMARK  210  A    between atoms: _509  and  _511
REMARK  211  A    between atoms: _511  and  _512
REMARK  212  A    between atoms: _511  and  _514
REMARK  213  A    between atoms: _514  and  _515
REMARK  214  A    between atoms: _518  and  _520
REMARK  215  A    between atoms: _520  and  _521
REMARK  216  A    between atoms: _520  and  _523
REMARK  217  A    between atoms: _523  and  _524
REMARK  218  A    between atoms: _527  and  _529
REMARK  219  A    between atoms: _529  and  _530
REMARK  220  A    between atoms: _532  and  _534
REMARK  221  A    between atoms: _534  and  _535
REMARK  222  A    between atoms: _534  and  _537
REMARK  223  A    between atoms: _537  and  _538
REMARK  224  A    between atoms: _538  and  _539
REMARK  225  A    between atoms: _539  and  _540
REMARK  226  A    between atoms: _549  and  _551
REMARK  227  A    between atoms: _551  and  _552
REMARK  228  A    between atoms: _551  and  _554
REMARK  229  A    between atoms: _554  and  _555
REMARK                            x       y       z     vdW  Elec       q    Type
REMARK                         _______ _______ _______ _____ _____    ______ ____
ROOT
ATOM      1  O   HOH     1      15.818  44.190  16.323  0.00  0.00    +0.000 OA
ENDROOT
TORSDOF 0
REMARK  Name = ../refined-set-2016/2avo/2avo_pocket.pdb
REMARK  229 active torsions:
REMARK  status: ('A' for Active; 'I' for Inactive)
REMARK    1  A    between atoms: _1  and  _3
REMARK    2  A    between atoms: _3  and  _4
REMARK    3  A    between atoms: _3  and  _6
REMARK    4  A    between atoms: _6  and  _7
REMARK    5  A    between atoms: _7  and  _8
REMARK    6  A    between atoms: _8  and  _9
REMARK    7  A    between atoms: _18  and  _20
REMARK    8  A    between atoms: _20  and  _21
REMARK    9  A    between atoms: _20  and  _23
REMARK   10  A    between atoms: _23  and  _24
REMARK   11  A    between atoms: _27  and  _29
REMARK   12  A    between atoms: _29  and  _30
REMARK   13  A    between atoms: _29  and  _32
REMARK   14  A    between atoms: _32  and  _33
REMARK   15  A    between atoms: _36  and  _38
REMARK   16  A    between atoms: _38  and  _39
REMARK   17  A    between atoms: _38  and  _41
REMARK   18  A    between atoms: _41  and  _42
REMARK   19  A    between atoms: _45  and  _47
REMARK   20  A    between atoms: _47  and  _48
REMARK   21  A    between atoms: _47  and  _50
REMARK   22  A    between atoms: _50  and  _51
REMARK   23  A    between atoms: _54  and  _56
REMARK   24  A    between atoms: _56  and  _57
REMARK   25  A    between atoms: _56  and  _59
REMARK   26  A    between atoms: _59  and  _60
REMARK   27  A    between atoms: _63  and  _65
REMARK   28  A    between atoms: _65  and  _66
REMARK   29  A    between atoms: _68  and  _70
REMARK   30  A    between atoms: _70  and  _71
REMARK   31  A    between atoms: _74  and  _76
REMARK   32  A    between atoms: _76  and  _77
REMARK   33  A    between atoms: _76  and  _79
REMARK   34  A    between atoms: _79  and  _80
REMARK   35  A    between atoms: _83  and  _85
REMARK   36  A    between atoms: _85  and  _86
REMARK   37  A    between atoms: _85  and  _88
REMARK   38  A    between atoms: _88  and  _89
REMARK   39  A    between atoms: _92  and  _94
REMARK   40  A    between atoms: _94  and  _95
REMARK   41  A    between atoms: _94  and  _97
REMARK   42  A    between atoms: _97  and  _98
REMARK   43  A    between atoms: _101  and  _103
REMARK   44  A    between atoms: _103  and  _104
REMARK   45  A    between atoms: _103  and  _106
REMARK   46  A    between atoms: _109  and  _111
REMARK   47  A    between atoms: _111  and  _112
REMARK   48  A    between atoms: _111  and  _114
REMARK   49  A    between atoms: _114  and  _115
REMARK   50  A    between atoms: _115  and  _116
REMARK   51  A    between atoms: _118  and  _120
REMARK   52  A    between atoms: _120  and  _121
REMARK   53  A    between atoms: _120  and  _123
REMARK   54  A    between atoms: _123  and  _124
REMARK   55  A    between atoms: _127  and  _129
REMARK   56  A    between atoms: _129  and  _130
REMARK   57  A    between atoms: _132  and  _134
REMARK   58  A    between atoms: _134  and  _135
REMARK   59  A    between atoms: _137  and  _139
REMARK   60  A    between atoms: _139  and  _140
REMARK   61  A    between atoms: _139  and  _142
REMARK   62  A    between atoms: _142  and  _143
REMARK   63  A    between atoms: _146  and  _148
REMARK   64  A    between atoms: _148  and  _149
REMARK   65  A    between atoms: _151  and  _153
REMARK   66  A    between atoms: _153  and  _154
REMARK   67  A    between atoms: _156  and  _158
REMARK   68  A    between atoms: _158  and  _159
REMARK   69  A    between atoms: _158  and  _161
REMARK   70  A    between atoms: _161  and  _162
REMARK   71  A    between atoms: _168  and  _170
REMARK   72  A    between atoms: _170  and  _171
REMARK   73  A    between atoms: _170  and  _173
REMARK   74  A    between atoms: _173  and  _174
REMARK   75  A    between atoms: _177  and  _179
REMARK   76  A    between atoms: _179  and  _180
REMARK   77  A    between atoms: _179  and  _182
REMARK   78  A    between atoms: _185  and  _187
REMARK   79  A    between atoms: _187  and  _188
REMARK   80  A    between atoms: _187  and  _190
REMARK   81  A    between atoms: _190  and  _191
REMARK   82  A    between atoms: _194  and  _196
REMARK   83  A    between atoms: _196  and  _197
REMARK   84  A    between atoms: _196  and  _199
REMARK   85  A    between atoms: _199  and  _200
REMARK   86  A    between atoms: _204  and  _205
REMARK   87  A    between atoms: _210  and  _212
REMARK   88  A    between atoms: _212  and  _213
REMARK   89  A    between atoms: _212  and  _215
REMARK   90  A    between atoms: _218  and  _220
REMARK   91  A    between atoms: _220  and  _221
REMARK   92  A    between atoms: _220  and  _223
REMARK   93  A    between atoms: _223  and  _224
REMARK   94  A    between atoms: _229  and  _231
REMARK   95  A    between atoms: _231  and  _232
REMARK   96  A    between atoms: _231  and  _234
REMARK   97  A    between atoms: _234  and  _235
REMARK   98  A    between atoms: _238  and  _240
REMARK   99  A    between atoms: _240  and  _241
REMARK  100  A    between atoms: _240  and  _243
REMARK  101  A    between atoms: _243  and  _244
REMARK  102  A    between atoms: _247  and  _249
REMARK  103  A    between atoms: _249  and  _250
REMARK  104  A    between atoms: _252  and  _254
REMARK  105  A    between atoms: _254  and  _255
REMARK  106  A    between atoms: _254  and  _257
REMARK  107  A    between atoms: _257  and  _258
REMARK  108  A    between atoms: _258  and  _259
REMARK  109  A    between atoms: _259  and  _260
REMARK  110  A    between atoms: _269  and  _271
REMARK  111  A    between atoms: _271  and  _272
REMARK  112  A    between atoms: _271  and  _274
REMARK  113  A    between atoms: _274  and  _275
REMARK  114  A    between atoms: _280  and  _282
REMARK  115  A    between atoms: _282  and  _283
REMARK  116  A    between atoms: _282  and  _285
REMARK  117  A    between atoms: _285  and  _286
REMARK  118  A    between atoms: _286  and  _287
REMARK  119  A    between atoms: _287  and  _288
REMARK  120  A    between atoms: _297  and  _299
REMARK  121  A    between atoms: _299  and  _300
REMARK  122  A    between atoms: _299  and  _302
REMARK  123  A    between atoms: _302  and  _303
REMARK  124  A    between atoms: _306  and  _308
REMARK  125  A    between atoms: _308  and  _309
REMARK  126  A    between atoms: _308  and  _311
REMARK  127  A    between atoms: _311  and  _312
REMARK  128  A    between atoms: _315  and  _317
REMARK  129  A    between atoms: _317  and  _318
REMARK  130  A    between atoms: _317  and  _320
REMARK  131  A    between atoms: _320  and  _321
REMARK  132  A    between atoms: _324  and  _326
REMARK  133  A    between atoms: _326  and  _327
REMARK  134  A    between atoms: _326  and  _329
REMARK  135  A    between atoms: _329  and  _330
REMARK  136  A    between atoms: _333  and  _335
REMARK  137  A    between atoms: _335  and  _336
REMARK  138  A    between atoms: _338  and  _340
REMARK  139  A    between atoms: _340  and  _341
REMARK  140  A    between atoms: _344  and  _346
REMARK  141  A    between atoms: _346  and  _347
REMARK  142  A    between atoms: _346  and  _349
REMARK  143  A    between atoms: _349  and  _350
REMARK  144  A    between atoms: _353  and  _355
REMARK  145  A    between atoms: _355  and  _356
REMARK  146  A    between atoms: _355  and  _358
REMARK  147  A    between atoms: _358  and  _359
REMARK  148  A    between atoms: _362  and  _364
REMARK  149  A    between atoms: _364  and  _365
REMARK  150  A    between atoms: _364  and  _367
REMARK  151  A    between atoms: _367  and  _368
REMARK  152  A    between atoms: _371  and  _373
REMARK  153  A    between atoms: _373  and  _374
REMARK  154  A    between atoms: _373  and  _376
REMARK  155  A    between atoms: _379  and  _381
REMARK  156  A    between atoms: _381  and  _382
REMARK  157  A    between atoms: _381  and  _384
REMARK  158  A    between atoms: _384  and  _385
REMARK  159  A    between atoms: _388  and  _390
REMARK  160  A    between atoms: _390  and  _391
REMARK  161  A    between atoms: _390  and  _393
REMARK  162  A    between atoms: _393  and  _394
REMARK  163  A    between atoms: _394  and  _395
REMARK  164  A    between atoms: _395  and  _396
REMARK  165  A    between atoms: _396  and  _397
REMARK  166  A    between atoms: _401  and  _403
REMARK  167  A    between atoms: _403  and  _404
REMARK  168  A    between atoms: _403  and  _406
REMARK  169  A    between atoms: _406  and  _407
REMARK  170  A    between atoms: _407  and  _408
REMARK  171  A    between atoms: _410  and  _412
REMARK  172  A    between atoms: _412  and  _413
REMARK  173  A    between atoms: _412  and  _415
REMARK  174  A    between atoms: _415  and  _416
REMARK  175  A    between atoms: _419  and  _421
REMARK  176  A    between atoms: _421  and  _422
REMARK  177  A    between atoms: _424  and  _426
REMARK  178  A    between atoms: _426  and  _427
REMARK  179  A    between atoms: _429  and  _431
REMARK  180  A    between atoms: _431  and  _432
REMARK  181  A    between atoms: _431  and  _434
REMARK  182  A    between atoms: _434  and  _435
REMARK  183  A    between atoms: _438  and  _440
REMARK  184  A    between atoms: _440  and  _441
REMARK  185  A    between atoms: _443  and  _445
REMARK  186  A    between atoms: _445  and  _446
REMARK  187  A    between atoms: _448  and  _450
REMARK  188  A    between atoms: _450  and  _451
REMARK  189  A    between atoms: _450  and  _453
REMARK  190  A    between atoms: _453  and  _454
REMARK  191  A    between atoms: _457  and  _459
REMARK  192  A    between atoms: _459  and  _460
REMARK  193  A    between atoms: _459  and  _462
REMARK  194  A    between atoms: _465  and  _467
REMARK  195  A    between atoms: _467  and  _468
REMARK  196  A    between atoms: _467  and  _470
REMARK  197  A    between atoms: _470  and  _471
REMARK  198  A    between atoms: _474  and  _476
REMARK  199  A    between atoms: _476  and  _477
REMARK  200  A    between atoms: _476  and  _479
REMARK  201  A    between atoms: _479  and  _480
REMARK  202  A    between atoms: _484  and  _485
REMARK  203  A    between atoms: _490  and  _492
REMARK  204  A    between atoms: _492  and  _493
REMARK  205  A    between atoms: _492  and  _495
REMARK  206  A    between atoms: _498  and  _500
REMARK  207  A    between atoms: _500  and  _501
REMARK  208  A    between atoms: _500  and  _503
REMARK  209  A    between atoms: _503  and  _504
REMARK  210  A    between atoms: _509  and  _511
REMARK  211  A    between atoms: _511  and  _512
REMARK  212  A    between atoms: _511  and  _514
REMARK  213  A    between atoms: _514  and  _515
REMARK  214  A    between atoms: _518  and  _520
REMARK  215  A    between atoms: _520  and  _521
REMARK  216  A    between atoms: _520  and  _523
REMARK  217  A    between atoms: _523  and  _524
REMARK  218  A    between atoms: _527  and  _529
REMARK  219  A    between atoms: _529  and  _530
REMARK  220  A    between atoms: _532  and  _534
REMARK  221  A    between atoms: _534  and  _535
REMARK  222  A    between atoms: _534  and  _537
REMARK  223  A    between atoms: _537  and  _538
REMARK  224  A    between atoms: _538  and  _539
REMARK  225  A    between atoms: _539  and  _540
REMARK  226  A    between atoms: _549  and  _551
REMARK  227  A    between atoms: _551  and  _552
REMARK  228  A    between atoms: _551  and  _554
REMARK  229  A    between atoms: _554  and  _555
REMARK                            x       y       z     vdW  Elec       q    Type
REMARK                         _______ _______ _______ _____ _____    ______ ____
ROOT
ATOM      1  O   HOH     1      26.322  37.990   8.521  0.00  0.00    +0.000 OA
ENDROOT
TORSDOF 0
REMARK  Name = ../refined-set-2016/2avo/2avo_pocket.pdb
REMARK  229 active torsions:
REMARK  status: ('A' for Active; 'I' for Inactive)
REMARK    1  A    between atoms: _1  and  _3
REMARK    2  A    between atoms: _3  and  _4
REMARK    3  A    between atoms: _3  and  _6
REMARK    4  A    between atoms: _6  and  _7
REMARK    5  A    between atoms: _7  and  _8
REMARK    6  A    between atoms: _8  and  _9
REMARK    7  A    between atoms: _18  and  _20
REMARK    8  A    between atoms: _20  and  _21
REMARK    9  A    between atoms: _20  and  _23
REMARK   10  A    between atoms: _23  and  _24
REMARK   11  A    between atoms: _27  and  _29
REMARK   12  A    between atoms: _29  and  _30
REMARK   13  A    between atoms: _29  and  _32
REMARK   14  A    between atoms: _32  and  _33
REMARK   15  A    between atoms: _36  and  _38
REMARK   16  A    between atoms: _38  and  _39
REMARK   17  A    between atoms: _38  and  _41
REMARK   18  A    between atoms: _41  and  _42
REMARK   19  A    between atoms: _45  and  _47
REMARK   20  A    between atoms: _47  and  _48
REMARK   21  A    between atoms: _47  and  _50
REMARK   22  A    between atoms: _50  and  _51
REMARK   23  A    between atoms: _54  and  _56
REMARK   24  A    between atoms: _56  and  _57
REMARK   25  A    between atoms: _56  and  _59
REMARK   26  A    between atoms: _59  and  _60
REMARK   27  A    between atoms: _63  and  _65
REMARK   28  A    between atoms: _65  and  _66
REMARK   29  A    between atoms: _68  and  _70
REMARK   30  A    between atoms: _70  and  _71
REMARK   31  A    between atoms: _74  and  _76
REMARK   32  A    between atoms: _76  and  _77
REMARK   33  A    between atoms: _76  and  _79
REMARK   34  A    between atoms: _79  and  _80
REMARK   35  A    between atoms: _83  and  _85
REMARK   36  A    between atoms: _85  and  _86
REMARK   37  A    between atoms: _85  and  _88
REMARK   38  A    between atoms: _88  and  _89
REMARK   39  A    between atoms: _92  and  _94
REMARK   40  A    between atoms: _94  and  _95
REMARK   41  A    between atoms: _94  and  _97
REMARK   42  A    between atoms: _97  and  _98
REMARK   43  A    between atoms: _101  and  _103
REMARK   44  A    between atoms: _103  and  _104
REMARK   45  A    between atoms: _103  and  _106
REMARK   46  A    between atoms: _109  and  _111
REMARK   47  A    between atoms: _111  and  _112
REMARK   48  A    between atoms: _111  and  _114
REMARK   49  A    between atoms: _114  and  _115
REMARK   50  A    between atoms: _115  and  _116
REMARK   51  A    between atoms: _118  and  _120
REMARK   52  A    between atoms: _120  and  _121
REMARK   53  A    between atoms: _120  and  _123
REMARK   54  A    between atoms: _123  and  _124
REMARK   55  A    between atoms: _127  and  _129
REMARK   56  A    between atoms: _129  and  _130
REMARK   57  A    between atoms: _132  and  _134
REMARK   58  A    between atoms: _134  and  _135
REMARK   59  A    between atoms: _137  and  _139
REMARK   60  A    between atoms: _139  and  _140
REMARK   61  A    between atoms: _139  and  _142
REMARK   62  A    between atoms: _142  and  _143
REMARK   63  A    between atoms: _146  and  _148
REMARK   64  A    between atoms: _148  and  _149
REMARK   65  A    between atoms: _151  and  _153
REMARK   66  A    between atoms: _153  and  _154
REMARK   67  A    between atoms: _156  and  _158
REMARK   68  A    between atoms: _158  and  _159
REMARK   69  A    between atoms: _158  and  _161
REMARK   70  A    between atoms: _161  and  _162
REMARK   71  A    between atoms: _168  and  _170
REMARK   72  A    between atoms: _170  and  _171
REMARK   73  A    between atoms: _170  and  _173
REMARK   74  A    between atoms: _173  and  _174
REMARK   75  A    between atoms: _177  and  _179
REMARK   76  A    between atoms: _179  and  _180
REMARK   77  A    between atoms: _179  and  _182
REMARK   78  A    between atoms: _185  and  _187
REMARK   79  A    between atoms: _187  and  _188
REMARK   80  A    between atoms: _187  and  _190
REMARK   81  A    between atoms: _190  and  _191
REMARK   82  A    between atoms: _194  and  _196
REMARK   83  A    between atoms: _196  and  _197
REMARK   84  A    between atoms: _196  and  _199
REMARK   85  A    between atoms: _199  and  _200
REMARK   86  A    between atoms: _204  and  _205
REMARK   87  A    between atoms: _210  and  _212
REMARK   88  A    between atoms: _212  and  _213
REMARK   89  A    between atoms: _212  and  _215
REMARK   90  A    between atoms: _218  and  _220
REMARK   91  A    between atoms: _220  and  _221
REMARK   92  A    between atoms: _220  and  _223
REMARK   93  A    between atoms: _223  and  _224
REMARK   94  A    between atoms: _229  and  _231
REMARK   95  A    between atoms: _231  and  _232
REMARK   96  A    between atoms: _231  and  _234
REMARK   97  A    between atoms: _234  and  _235
REMARK   98  A    between atoms: _238  and  _240
REMARK   99  A    between atoms: _240  and  _241
REMARK  100  A    between atoms: _240  and  _243
REMARK  101  A    between atoms: _243  and  _244
REMARK  102  A    between atoms: _247  and  _249
REMARK  103  A    between atoms: _249  and  _250
REMARK  104  A    between atoms: _252  and  _254
REMARK  105  A    between atoms: _254  and  _255
REMARK  106  A    between atoms: _254  and  _257
REMARK  107  A    between atoms: _257  and  _258
REMARK  108  A    between atoms: _258  and  _259
REMARK  109  A    between atoms: _259  and  _260
REMARK  110  A    between atoms: _269  and  _271
REMARK  111  A    between atoms: _271  and  _272
REMARK  112  A    between atoms: _271  and  _274
REMARK  113  A    between atoms: _274  and  _275
REMARK  114  A    between atoms: _280  and  _282
REMARK  115  A    between atoms: _282  and  _283
REMARK  116  A    between atoms: _282  and  _285
REMARK  117  A    between atoms: _285  and  _286
REMARK  118  A    between atoms: _286  and  _287
REMARK  119  A    between atoms: _287  and  _288
REMARK  120  A    between atoms: _297  and  _299
REMARK  121  A    between atoms: _299  and  _300
REMARK  122  A    between atoms: _299  and  _302
REMARK  123  A    between atoms: _302  and  _303
REMARK  124  A    between atoms: _306  and  _308
REMARK  125  A    between atoms: _308  and  _309
REMARK  126  A    between atoms: _308  and  _311
REMARK  127  A    between atoms: _311  and  _312
REMARK  128  A    between atoms: _315  and  _317
REMARK  129  A    between atoms: _317  and  _318
REMARK  130  A    between atoms: _317  and  _320
REMARK  131  A    between atoms: _320  and  _321
REMARK  132  A    between atoms: _324  and  _326
REMARK  133  A    between atoms: _326  and  _327
REMARK  134  A    between atoms: _326  and  _329
REMARK  135  A    between atoms: _329  and  _330
REMARK  136  A    between atoms: _333  and  _335
REMARK  137  A    between atoms: _335  and  _336
REMARK  138  A    between atoms: _338  and  _340
REMARK  139  A    between atoms: _340  and  _341
REMARK  140  A    between atoms: _344  and  _346
REMARK  141  A    between atoms: _346  and  _347
REMARK  142  A    between atoms: _346  and  _349
REMARK  143  A    between atoms: _349  and  _350
REMARK  144  A    between atoms: _353  and  _355
REMARK  145  A    between atoms: _355  and  _356
REMARK  146  A    between atoms: _355  and  _358
REMARK  147  A    between atoms: _358  and  _359
REMARK  148  A    between atoms: _362  and  _364
REMARK  149  A    between atoms: _364  and  _365
REMARK  150  A    between atoms: _364  and  _367
REMARK  151  A    between atoms: _367  and  _368
REMARK  152  A    between atoms: _371  and  _373
REMARK  153  A    between atoms: _373  and  _374
REMARK  154  A    between atoms: _373  and  _376
REMARK  155  A    between atoms: _379  and  _381
REMARK  156  A    between atoms: _381  and  _382
REMARK  157  A    between atoms: _381  and  _384
REMARK  158  A    between atoms: _384  and  _385
REMARK  159  A    between atoms: _388  and  _390
REMARK  160  A    between atoms: _390  and  _391
REMARK  161  A    between atoms: _390  and  _393
REMARK  162  A    between atoms: _393  and  _394
REMARK  163  A    between atoms: _394  and  _395
REMARK  164  A    between atoms: _395  and  _396
REMARK  165  A    between atoms: _396  and  _397
REMARK  166  A    between atoms: _401  and  _403
REMARK  167  A    between atoms: _403  and  _404
REMARK  168  A    between atoms: _403  and  _406
REMARK  169  A    between atoms: _406  and  _407
REMARK  170  A    between atoms: _407  and  _408
REMARK  171  A    between atoms: _410  and  _412
REMARK  172  A    between atoms: _412  and  _413
REMARK  173  A    between atoms: _412  and  _415
REMARK  174  A    between atoms: _415  and  _416
REMARK  175  A    between atoms: _419  and  _421
REMARK  176  A    between atoms: _421  and  _422
REMARK  177  A    between atoms: _424  and  _426
REMARK  178  A    between atoms: _426  and  _427
REMARK  179  A    between atoms: _429  and  _431
REMARK  180  A    between atoms: _431  and  _432
REMARK  181  A    between atoms: _431  and  _434
REMARK  182  A    between atoms: _434  and  _435
REMARK  183  A    between atoms: _438  and  _440
REMARK  184  A    between atoms: _440  and  _441
REMARK  185  A    between atoms: _443  and  _445
REMARK  186  A    between atoms: _445  and  _446
REMARK  187  A    between atoms: _448  and  _450
REMARK  188  A    between atoms: _450  and  _451
REMARK  189  A    between atoms: _450  and  _453
REMARK  190  A    between atoms: _453  and  _454
REMARK  191  A    between atoms: _457  and  _459
REMARK  192  A    between atoms: _459  and  _460
REMARK  193  A    between atoms: _459  and  _462
REMARK  194  A    between atoms: _465  and  _467
REMARK  195  A    between atoms: _467  and  _468
REMARK  196  A    between atoms: _467  and  _470
REMARK  197  A    between atoms: _470  and  _471
REMARK  198  A    between atoms: _474  and  _476
REMARK  199  A    between atoms: _476  and  _477
REMARK  200  A    between atoms: _476  and  _479
REMARK  201  A    between atoms: _479  and  _480
REMARK  202  A    between atoms: _484  and  _485
REMARK  203  A    between atoms: _490  and  _492
REMARK  204  A    between atoms: _492  and  _493
REMARK  205  A    between atoms: _492  and  _495
REMARK  206  A    between atoms: _498  and  _500
REMARK  207  A    between atoms: _500  and  _501
REMARK  208  A    between atoms: _500  and  _503
REMARK  209  A    between atoms: _503  and  _504
REMARK  210  A    between atoms: _509  and  _511
REMARK  211  A    between atoms: _511  and  _512
REMARK  212  A    between atoms: _511  and  _514
REMARK  213  A    between atoms: _514  and  _515
REMARK  214  A    between atoms: _518  and  _520
REMARK  215  A    between atoms: _520  and  _521
REMARK  216  A    between atoms: _520  and  _523
REMARK  217  A    between atoms: _523  and  _524
REMARK  218  A    between atoms: _527  and  _529
REMARK  219  A    between atoms: _529  and  _530
REMARK  220  A    between atoms: _532  and  _534
REMARK  221  A    between atoms: _534  and  _535
REMARK  222  A    between atoms: _534  and  _537
REMARK  223  A    between atoms: _537  and  _538
REMARK  224  A    between atoms: _538  and  _539
REMARK  225  A    between atoms: _539  and  _540
REMARK  226  A    between atoms: _549  and  _551
REMARK  227  A    between atoms: _551  and  _552
REMARK  228  A    between atoms: _551  and  _554
REMARK  229  A    between atoms: _554  and  _555
REMARK                            x       y       z     vdW  Elec       q    Type
REMARK                         _______ _______ _______ _____ _____    ______ ____
ROOT
ATOM      1  O   HOH     1      17.670  42.955  16.810  0.00  0.00    +0.000 OA
ENDROOT
TORSDOF 0
REMARK  Name = ../refined-set-2016/2avo/2avo_pocket.pdb
REMARK  229 active torsions:
REMARK  status: ('A' for Active; 'I' for Inactive)
REMARK    1  A    between atoms: _1  and  _3
REMARK    2  A    between atoms: _3  and  _4
REMARK    3  A    between atoms: _3  and  _6
REMARK    4  A    between atoms: _6  and  _7
REMARK    5  A    between atoms: _7  and  _8
REMARK    6  A    between atoms: _8  and  _9
REMARK    7  A    between atoms: _18  and  _20
REMARK    8  A    between atoms: _20  and  _21
REMARK    9  A    between atoms: _20  and  _23
REMARK   10  A    between atoms: _23  and  _24
REMARK   11  A    between atoms: _27  and  _29
REMARK   12  A    between atoms: _29  and  _30
REMARK   13  A    between atoms: _29  and  _32
REMARK   14  A    between atoms: _32  and  _33
REMARK   15  A    between atoms: _36  and  _38
REMARK   16  A    between atoms: _38  and  _39
REMARK   17  A    between atoms: _38  and  _41
REMARK   18  A    between atoms: _41  and  _42
REMARK   19  A    between atoms: _45  and  _47
REMARK   20  A    between atoms: _47  and  _48
REMARK   21  A    between atoms: _47  and  _50
REMARK   22  A    between atoms: _50  and  _51
REMARK   23  A    between atoms: _54  and  _56
REMARK   24  A    between atoms: _56  and  _57
REMARK   25  A    between atoms: _56  and  _59
REMARK   26  A    between atoms: _59  and  _60
REMARK   27  A    between atoms: _63  and  _65
REMARK   28  A    between atoms: _65  and  _66
REMARK   29  A    between atoms: _68  and  _70
REMARK   30  A    between atoms: _70  and  _71
REMARK   31  A    between atoms: _74  and  _76
REMARK   32  A    between atoms: _76  and  _77
REMARK   33  A    between atoms: _76  and  _79
REMARK   34  A    between atoms: _79  and  _80
REMARK   35  A    between atoms: _83  and  _85
REMARK   36  A    between atoms: _85  and  _86
REMARK   37  A    between atoms: _85  and  _88
REMARK   38  A    between atoms: _88  and  _89
REMARK   39  A    between atoms: _92  and  _94
REMARK   40  A    between atoms: _94  and  _95
REMARK   41  A    between atoms: _94  and  _97
REMARK   42  A    between atoms: _97  and  _98
REMARK   43  A    between atoms: _101  and  _103
REMARK   44  A    between atoms: _103  and  _104
REMARK   45  A    between atoms: _103  and  _106
REMARK   46  A    between atoms: _109  and  _111
REMARK   47  A    between atoms: _111  and  _112
REMARK   48  A    between atoms: _111  and  _114
REMARK   49  A    between atoms: _114  and  _115
REMARK   50  A    between atoms: _115  and  _116
REMARK   51  A    between atoms: _118  and  _120
REMARK   52  A    between atoms: _120  and  _121
REMARK   53  A    between atoms: _120  and  _123
REMARK   54  A    between atoms: _123  and  _124
REMARK   55  A    between atoms: _127  and  _129
REMARK   56  A    between atoms: _129  and  _130
REMARK   57  A    between atoms: _132  and  _134
REMARK   58  A    between atoms: _134  and  _135
REMARK   59  A    between atoms: _137  and  _139
REMARK   60  A    between atoms: _139  and  _140
REMARK   61  A    between atoms: _139  and  _142
REMARK   62  A    between atoms: _142  and  _143
REMARK   63  A    between atoms: _146  and  _148
REMARK   64  A    between atoms: _148  and  _149
REMARK   65  A    between atoms: _151  and  _153
REMARK   66  A    between atoms: _153  and  _154
REMARK   67  A    between atoms: _156  and  _158
REMARK   68  A    between atoms: _158  and  _159
REMARK   69  A    between atoms: _158  and  _161
REMARK   70  A    between atoms: _161  and  _162
REMARK   71  A    between atoms: _168  and  _170
REMARK   72  A    between atoms: _170  and  _171
REMARK   73  A    between atoms: _170  and  _173
REMARK   74  A    between atoms: _173  and  _174
REMARK   75  A    between atoms: _177  and  _179
REMARK   76  A    between atoms: _179  and  _180
REMARK   77  A    between atoms: _179  and  _182
REMARK   78  A    between atoms: _185  and  _187
REMARK   79  A    between atoms: _187  and  _188
REMARK   80  A    between atoms: _187  and  _190
REMARK   81  A    between atoms: _190  and  _191
REMARK   82  A    between atoms: _194  and  _196
REMARK   83  A    between atoms: _196  and  _197
REMARK   84  A    between atoms: _196  and  _199
REMARK   85  A    between atoms: _199  and  _200
REMARK   86  A    between atoms: _204  and  _205
REMARK   87  A    between atoms: _210  and  _212
REMARK   88  A    between atoms: _212  and  _213
REMARK   89  A    between atoms: _212  and  _215
REMARK   90  A    between atoms: _218  and  _220
REMARK   91  A    between atoms: _220  and  _221
REMARK   92  A    between atoms: _220  and  _223
REMARK   93  A    between atoms: _223  and  _224
REMARK   94  A    between atoms: _229  and  _231
REMARK   95  A    between atoms: _231  and  _232
REMARK   96  A    between atoms: _231  and  _234
REMARK   97  A    between atoms: _234  and  _235
REMARK   98  A    between atoms: _238  and  _240
REMARK   99  A    between atoms: _240  and  _241
REMARK  100  A    between atoms: _240  and  _243
REMARK  101  A    between atoms: _243  and  _244
REMARK  102  A    between atoms: _247  and  _249
REMARK  103  A    between atoms: _249  and  _250
REMARK  104  A    between atoms: _252  and  _254
REMARK  105  A    between atoms: _254  and  _255
REMARK  106  A    between atoms: _254  and  _257
REMARK  107  A    between atoms: _257  and  _258
REMARK  108  A    between atoms: _258  and  _259
REMARK  109  A    between atoms: _259  and  _260
REMARK  110  A    between atoms: _269  and  _271
REMARK  111  A    between atoms: _271  and  _272
REMARK  112  A    between atoms: _271  and  _274
REMARK  113  A    between atoms: _274  and  _275
REMARK  114  A    between atoms: _280  and  _282
REMARK  115  A    between atoms: _282  and  _283
REMARK  116  A    between atoms: _282  and  _285
REMARK  117  A    between atoms: _285  and  _286
REMARK  118  A    between atoms: _286  and  _287
REMARK  119  A    between atoms: _287  and  _288
REMARK  120  A    between atoms: _297  and  _299
REMARK  121  A    between atoms: _299  and  _300
REMARK  122  A    between atoms: _299  and  _302
REMARK  123  A    between atoms: _302  and  _303
REMARK  124  A    between atoms: _306  and  _308
REMARK  125  A    between atoms: _308  and  _309
REMARK  126  A    between atoms: _308  and  _311
REMARK  127  A    between atoms: _311  and  _312
REMARK  128  A    between atoms: _315  and  _317
REMARK  129  A    between atoms: _317  and  _318
REMARK  130  A    between atoms: _317  and  _320
REMARK  131  A    between atoms: _320  and  _321
REMARK  132  A    between atoms: _324  and  _326
REMARK  133  A    between atoms: _326  and  _327
REMARK  134  A    between atoms: _326  and  _329
REMARK  135  A    between atoms: _329  and  _330
REMARK  136  A    between atoms: _333  and  _335
REMARK  137  A    between atoms: _335  and  _336
REMARK  138  A    between atoms: _338  and  _340
REMARK  139  A    between atoms: _340  and  _341
REMARK  140  A    between atoms: _344  and  _346
REMARK  141  A    between atoms: _346  and  _347
REMARK  142  A    between atoms: _346  and  _349
REMARK  143  A    between atoms: _349  and  _350
REMARK  144  A    between atoms: _353  and  _355
REMARK  145  A    between atoms: _355  and  _356
REMARK  146  A    between atoms: _355  and  _358
REMARK  147  A    between atoms: _358  and  _359
REMARK  148  A    between atoms: _362  and  _364
REMARK  149  A    between atoms: _364  and  _365
REMARK  150  A    between atoms: _364  and  _367
REMARK  151  A    between atoms: _367  and  _368
REMARK  152  A    between atoms: _371  and  _373
REMARK  153  A    between atoms: _373  and  _374
REMARK  154  A    between atoms: _373  and  _376
REMARK  155  A    between atoms: _379  and  _381
REMARK  156  A    between atoms: _381  and  _382
REMARK  157  A    between atoms: _381  and  _384
REMARK  158  A    between atoms: _384  and  _385
REMARK  159  A    between atoms: _388  and  _390
REMARK  160  A    between atoms: _390  and  _391
REMARK  161  A    between atoms: _390  and  _393
REMARK  162  A    between atoms: _393  and  _394
REMARK  163  A    between atoms: _394  and  _395
REMARK  164  A    between atoms: _395  and  _396
REMARK  165  A    between atoms: _396  and  _397
REMARK  166  A    between atoms: _401  and  _403
REMARK  167  A    between atoms: _403  and  _404
REMARK  168  A    between atoms: _403  and  _406
REMARK  169  A    between atoms: _406  and  _407
REMARK  170  A    between atoms: _407  and  _408
REMARK  171  A    between atoms: _410  and  _412
REMARK  172  A    between atoms: _412  and  _413
REMARK  173  A    between atoms: _412  and  _415
REMARK  174  A    between atoms: _415  and  _416
REMARK  175  A    between atoms: _419  and  _421
REMARK  176  A    between atoms: _421  and  _422
REMARK  177  A    between atoms: _424  and  _426
REMARK  178  A    between atoms: _426  and  _427
REMARK  179  A    between atoms: _429  and  _431
REMARK  180  A    between atoms: _431  and  _432
REMARK  181  A    between atoms: _431  and  _434
REMARK  182  A    between atoms: _434  and  _435
REMARK  183  A    between atoms: _438  and  _440
REMARK  184  A    between atoms: _440  and  _441
REMARK  185  A    between atoms: _443  and  _445
REMARK  186  A    between atoms: _445  and  _446
REMARK  187  A    between atoms: _448  and  _450
REMARK  188  A    between atoms: _450  and  _451
REMARK  189  A    between atoms: _450  and  _453
REMARK  190  A    between atoms: _453  and  _454
REMARK  191  A    between atoms: _457  and  _459
REMARK  192  A    between atoms: _459  and  _460
REMARK  193  A    between atoms: _459  and  _462
REMARK  194  A    between atoms: _465  and  _467
REMARK  195  A    between atoms: _467  and  _468
REMARK  196  A    between atoms: _467  and  _470
REMARK  197  A    between atoms: _470  and  _471
REMARK  198  A    between atoms: _474  and  _476
REMARK  199  A    between atoms: _476  and  _477
REMARK  200  A    between atoms: _476  and  _479
REMARK  201  A    between atoms: _479  and  _480
REMARK  202  A    between atoms: _484  and  _485
REMARK  203  A    between atoms: _490  and  _492
REMARK  204  A    between atoms: _492  and  _493
REMARK  205  A    between atoms: _492  and  _495
REMARK  206  A    between atoms: _498  and  _500
REMARK  207  A    between atoms: _500  and  _501
REMARK  208  A    between atoms: _500  and  _503
REMARK  209  A    between atoms: _503  and  _504
REMARK  210  A    between atoms: _509  and  _511
REMARK  211  A    between atoms: _511  and  _512
REMARK  212  A    between atoms: _511  and  _514
REMARK  213  A    between atoms: _514  and  _515
REMARK  214  A    between atoms: _518  and  _520
REMARK  215  A    between atoms: _520  and  _521
REMARK  216  A    between atoms: _520  and  _523
REMARK  217  A    between atoms: _523  and  _524
REMARK  218  A    between atoms: _527  and  _529
REMARK  219  A    between atoms: _529  and  _530
REMARK  220  A    between atoms: _532  and  _534
REMARK  221  A    between atoms: _534  and  _535
REMARK  222  A    between atoms: _534  and  _537
REMARK  223  A    between atoms: _537  and  _538
REMARK  224  A    between atoms: _538  and  _539
REMARK  225  A    between atoms: _539  and  _540
REMARK  226  A    between atoms: _549  and  _551
REMARK  227  A    between atoms: _551  and  _552
REMARK  228  A    between atoms: _551  and  _554
REMARK  229  A    between atoms: _554  and  _555
REMARK                            x       y       z     vdW  Elec       q    Type
REMARK                         _______ _______ _______ _____ _____    ______ ____
ROOT
ATOM      1  O   HOH     1      14.774  39.151  23.160  0.00  0.00    +0.000 OA
ENDROOT
TORSDOF 0
REMARK  Name = ../refined-set-2016/2avo/2avo_pocket.pdb
REMARK  229 active torsions:
REMARK  status: ('A' for Active; 'I' for Inactive)
REMARK    1  A    between atoms: _1  and  _3
REMARK    2  A    between atoms: _3  and  _4
REMARK    3  A    between atoms: _3  and  _6
REMARK    4  A    between atoms: _6  and  _7
REMARK    5  A    between atoms: _7  and  _8
REMARK    6  A    between atoms: _8  and  _9
REMARK    7  A    between atoms: _18  and  _20
REMARK    8  A    between atoms: _20  and  _21
REMARK    9  A    between atoms: _20  and  _23
REMARK   10  A    between atoms: _23  and  _24
REMARK   11  A    between atoms: _27  and  _29
REMARK   12  A    between atoms: _29  and  _30
REMARK   13  A    between atoms: _29  and  _32
REMARK   14  A    between atoms: _32  and  _33
REMARK   15  A    between atoms: _36  and  _38
REMARK   16  A    between atoms: _38  and  _39
REMARK   17  A    between atoms: _38  and  _41
REMARK   18  A    between atoms: _41  and  _42
REMARK   19  A    between atoms: _45  and  _47
REMARK   20  A    between atoms: _47  and  _48
REMARK   21  A    between atoms: _47  and  _50
REMARK   22  A    between atoms: _50  and  _51
REMARK   23  A    between atoms: _54  and  _56
REMARK   24  A    between atoms: _56  and  _57
REMARK   25  A    between atoms: _56  and  _59
REMARK   26  A    between atoms: _59  and  _60
REMARK   27  A    between atoms: _63  and  _65
REMARK   28  A    between atoms: _65  and  _66
REMARK   29  A    between atoms: _68  and  _70
REMARK   30  A    between atoms: _70  and  _71
REMARK   31  A    between atoms: _74  and  _76
REMARK   32  A    between atoms: _76  and  _77
REMARK   33  A    between atoms: _76  and  _79
REMARK   34  A    between atoms: _79  and  _80
REMARK   35  A    between atoms: _83  and  _85
REMARK   36  A    between atoms: _85  and  _86
REMARK   37  A    between atoms: _85  and  _88
REMARK   38  A    between atoms: _88  and  _89
REMARK   39  A    between atoms: _92  and  _94
REMARK   40  A    between atoms: _94  and  _95
REMARK   41  A    between atoms: _94  and  _97
REMARK   42  A    between atoms: _97  and  _98
REMARK   43  A    between atoms: _101  and  _103
REMARK   44  A    between atoms: _103  and  _104
REMARK   45  A    between atoms: _103  and  _106
REMARK   46  A    between atoms: _109  and  _111
REMARK   47  A    between atoms: _111  and  _112
REMARK   48  A    between atoms: _111  and  _114
REMARK   49  A    between atoms: _114  and  _115
REMARK   50  A    between atoms: _115  and  _116
REMARK   51  A    between atoms: _118  and  _120
REMARK   52  A    between atoms: _120  and  _121
REMARK   53  A    between atoms: _120  and  _123
REMARK   54  A    between atoms: _123  and  _124
REMARK   55  A    between atoms: _127  and  _129
REMARK   56  A    between atoms: _129  and  _130
REMARK   57  A    between atoms: _132  and  _134
REMARK   58  A    between atoms: _134  and  _135
REMARK   59  A    between atoms: _137  and  _139
REMARK   60  A    between atoms: _139  and  _140
REMARK   61  A    between atoms: _139  and  _142
REMARK   62  A    between atoms: _142  and  _143
REMARK   63  A    between atoms: _146  and  _148
REMARK   64  A    between atoms: _148  and  _149
REMARK   65  A    between atoms: _151  and  _153
REMARK   66  A    between atoms: _153  and  _154
REMARK   67  A    between atoms: _156  and  _158
REMARK   68  A    between atoms: _158  and  _159
REMARK   69  A    between atoms: _158  and  _161
REMARK   70  A    between atoms: _161  and  _162
REMARK   71  A    between atoms: _168  and  _170
REMARK   72  A    between atoms: _170  and  _171
REMARK   73  A    between atoms: _170  and  _173
REMARK   74  A    between atoms: _173  and  _174
REMARK   75  A    between atoms: _177  and  _179
REMARK   76  A    between atoms: _179  and  _180
REMARK   77  A    between atoms: _179  and  _182
REMARK   78  A    between atoms: _185  and  _187
REMARK   79  A    between atoms: _187  and  _188
REMARK   80  A    between atoms: _187  and  _190
REMARK   81  A    between atoms: _190  and  _191
REMARK   82  A    between atoms: _194  and  _196
REMARK   83  A    between atoms: _196  and  _197
REMARK   84  A    between atoms: _196  and  _199
REMARK   85  A    between atoms: _199  and  _200
REMARK   86  A    between atoms: _204  and  _205
REMARK   87  A    between atoms: _210  and  _212
REMARK   88  A    between atoms: _212  and  _213
REMARK   89  A    between atoms: _212  and  _215
REMARK   90  A    between atoms: _218  and  _220
REMARK   91  A    between atoms: _220  and  _221
REMARK   92  A    between atoms: _220  and  _223
REMARK   93  A    between atoms: _223  and  _224
REMARK   94  A    between atoms: _229  and  _231
REMARK   95  A    between atoms: _231  and  _232
REMARK   96  A    between atoms: _231  and  _234
REMARK   97  A    between atoms: _234  and  _235
REMARK   98  A    between atoms: _238  and  _240
REMARK   99  A    between atoms: _240  and  _241
REMARK  100  A    between atoms: _240  and  _243
REMARK  101  A    between atoms: _243  and  _244
REMARK  102  A    between atoms: _247  and  _249
REMARK  103  A    between atoms: _249  and  _250
REMARK  104  A    between atoms: _252  and  _254
REMARK  105  A    between atoms: _254  and  _255
REMARK  106  A    between atoms: _254  and  _257
REMARK  107  A    between atoms: _257  and  _258
REMARK  108  A    between atoms: _258  and  _259
REMARK  109  A    between atoms: _259  and  _260
REMARK  110  A    between atoms: _269  and  _271
REMARK  111  A    between atoms: _271  and  _272
REMARK  112  A    between atoms: _271  and  _274
REMARK  113  A    between atoms: _274  and  _275
REMARK  114  A    between atoms: _280  and  _282
REMARK  115  A    between atoms: _282  and  _283
REMARK  116  A    between atoms: _282  and  _285
REMARK  117  A    between atoms: _285  and  _286
REMARK  118  A    between atoms: _286  and  _287
REMARK  119  A    between atoms: _287  and  _288
REMARK  120  A    between atoms: _297  and  _299
REMARK  121  A    between atoms: _299  and  _300
REMARK  122  A    between atoms: _299  and  _302
REMARK  123  A    between atoms: _302  and  _303
REMARK  124  A    between atoms: _306  and  _308
REMARK  125  A    between atoms: _308  and  _309
REMARK  126  A    between atoms: _308  and  _311
REMARK  127  A    between atoms: _311  and  _312
REMARK  128  A    between atoms: _315  and  _317
REMARK  129  A    between atoms: _317  and  _318
REMARK  130  A    between atoms: _317  and  _320
REMARK  131  A    between atoms: _320  and  _321
REMARK  132  A    between atoms: _324  and  _326
REMARK  133  A    between atoms: _326  and  _327
REMARK  134  A    between atoms: _326  and  _329
REMARK  135  A    between atoms: _329  and  _330
REMARK  136  A    between atoms: _333  and  _335
REMARK  137  A    between atoms: _335  and  _336
REMARK  138  A    between atoms: _338  and  _340
REMARK  139  A    between atoms: _340  and  _341
REMARK  140  A    between atoms: _344  and  _346
REMARK  141  A    between atoms: _346  and  _347
REMARK  142  A    between atoms: _346  and  _349
REMARK  143  A    between atoms: _349  and  _350
REMARK  144  A    between atoms: _353  and  _355
REMARK  145  A    between atoms: _355  and  _356
REMARK  146  A    between atoms: _355  and  _358
REMARK  147  A    between atoms: _358  and  _359
REMARK  148  A    between atoms: _362  and  _364
REMARK  149  A    between atoms: _364  and  _365
REMARK  150  A    between atoms: _364  and  _367
REMARK  151  A    between atoms: _367  and  _368
REMARK  152  A    between atoms: _371  and  _373
REMARK  153  A    between atoms: _373  and  _374
REMARK  154  A    between atoms: _373  and  _376
REMARK  155  A    between atoms: _379  and  _381
REMARK  156  A    between atoms: _381  and  _382
REMARK  157  A    between atoms: _381  and  _384
REMARK  158  A    between atoms: _384  and  _385
REMARK  159  A    between atoms: _388  and  _390
REMARK  160  A    between atoms: _390  and  _391
REMARK  161  A    between atoms: _390  and  _393
REMARK  162  A    between atoms: _393  and  _394
REMARK  163  A    between atoms: _394  and  _395
REMARK  164  A    between atoms: _395  and  _396
REMARK  165  A    between atoms: _396  and  _397
REMARK  166  A    between atoms: _401  and  _403
REMARK  167  A    between atoms: _403  and  _404
REMARK  168  A    between atoms: _403  and  _406
REMARK  169  A    between atoms: _406  and  _407
REMARK  170  A    between atoms: _407  and  _408
REMARK  171  A    between atoms: _410  and  _412
REMARK  172  A    between atoms: _412  and  _413
REMARK  173  A    between atoms: _412  and  _415
REMARK  174  A    between atoms: _415  and  _416
REMARK  175  A    between atoms: _419  and  _421
REMARK  176  A    between atoms: _421  and  _422
REMARK  177  A    between atoms: _424  and  _426
REMARK  178  A    between atoms: _426  and  _427
REMARK  179  A    between atoms: _429  and  _431
REMARK  180  A    between atoms: _431  and  _432
REMARK  181  A    between atoms: _431  and  _434
REMARK  182  A    between atoms: _434  and  _435
REMARK  183  A    between atoms: _438  and  _440
REMARK  184  A    between atoms: _440  and  _441
REMARK  185  A    between atoms: _443  and  _445
REMARK  186  A    between atoms: _445  and  _446
REMARK  187  A    between atoms: _448  and  _450
REMARK  188  A    between atoms: _450  and  _451
REMARK  189  A    between atoms: _450  and  _453
REMARK  190  A    between atoms: _453  and  _454
REMARK  191  A    between atoms: _457  and  _459
REMARK  192  A    between atoms: _459  and  _460
REMARK  193  A    between atoms: _459  and  _462
REMARK  194  A    between atoms: _465  and  _467
REMARK  195  A    between atoms: _467  and  _468
REMARK  196  A    between atoms: _467  and  _470
REMARK  197  A    between atoms: _470  and  _471
REMARK  198  A    between atoms: _474  and  _476
REMARK  199  A    between atoms: _476  and  _477
REMARK  200  A    between atoms: _476  and  _479
REMARK  201  A    between atoms: _479  and  _480
REMARK  202  A    between atoms: _484  and  _485
REMARK  203  A    between atoms: _490  and  _492
REMARK  204  A    between atoms: _492  and  _493
REMARK  205  A    between atoms: _492  and  _495
REMARK  206  A    between atoms: _498  and  _500
REMARK  207  A    between atoms: _500  and  _501
REMARK  208  A    between atoms: _500  and  _503
REMARK  209  A    between atoms: _503  and  _504
REMARK  210  A    between atoms: _509  and  _511
REMARK  211  A    between atoms: _511  and  _512
REMARK  212  A    between atoms: _511  and  _514
REMARK  213  A    between atoms: _514  and  _515
REMARK  214  A    between atoms: _518  and  _520
REMARK  215  A    between atoms: _520  and  _521
REMARK  216  A    between atoms: _520  and  _523
REMARK  217  A    between atoms: _523  and  _524
REMARK  218  A    between atoms: _527  and  _529
REMARK  219  A    between atoms: _529  and  _530
REMARK  220  A    between atoms: _532  and  _534
REMARK  221  A    between atoms: _534  and  _535
REMARK  222  A    between atoms: _534  and  _537
REMARK  223  A    between atoms: _537  and  _538
REMARK  224  A    between atoms: _538  and  _539
REMARK  225  A    between atoms: _539  and  _540
REMARK  226  A    between atoms: _549  and  _551
REMARK  227  A    between atoms: _551  and  _552
REMARK  228  A    between atoms: _551  and  _554
REMARK  229  A    between atoms: _554  and  _555
REMARK                            x       y       z     vdW  Elec       q    Type
REMARK                         _______ _______ _______ _____ _____    ______ ____
ROOT
ATOM      1  O   HOH     1      16.699  22.666   7.257  0.00  0.00    +0.000 OA
ENDROOT
TORSDOF 0
REMARK  Name = ../refined-set-2016/2avo/2avo_pocket.pdb
REMARK  229 active torsions:
REMARK  status: ('A' for Active; 'I' for Inactive)
REMARK    1  A    between atoms: _1  and  _3
REMARK    2  A    between atoms: _3  and  _4
REMARK    3  A    between atoms: _3  and  _6
REMARK    4  A    between atoms: _6  and  _7
REMARK    5  A    between atoms: _7  and  _8
REMARK    6  A    between atoms: _8  and  _9
REMARK    7  A    between atoms: _18  and  _20
REMARK    8  A    between atoms: _20  and  _21
REMARK    9  A    between atoms: _20  and  _23
REMARK   10  A    between atoms: _23  and  _24
REMARK   11  A    between atoms: _27  and  _29
REMARK   12  A    between atoms: _29  and  _30
REMARK   13  A    between atoms: _29  and  _32
REMARK   14  A    between atoms: _32  and  _33
REMARK   15  A    between atoms: _36  and  _38
REMARK   16  A    between atoms: _38  and  _39
REMARK   17  A    between atoms: _38  and  _41
REMARK   18  A    between atoms: _41  and  _42
REMARK   19  A    between atoms: _45  and  _47
REMARK   20  A    between atoms: _47  and  _48
REMARK   21  A    between atoms: _47  and  _50
REMARK   22  A    between atoms: _50  and  _51
REMARK   23  A    between atoms: _54  and  _56
REMARK   24  A    between atoms: _56  and  _57
REMARK   25  A    between atoms: _56  and  _59
REMARK   26  A    between atoms: _59  and  _60
REMARK   27  A    between atoms: _63  and  _65
REMARK   28  A    between atoms: _65  and  _66
REMARK   29  A    between atoms: _68  and  _70
REMARK   30  A    between atoms: _70  and  _71
REMARK   31  A    between atoms: _74  and  _76
REMARK   32  A    between atoms: _76  and  _77
REMARK   33  A    between atoms: _76  and  _79
REMARK   34  A    between atoms: _79  and  _80
REMARK   35  A    between atoms: _83  and  _85
REMARK   36  A    between atoms: _85  and  _86
REMARK   37  A    between atoms: _85  and  _88
REMARK   38  A    between atoms: _88  and  _89
REMARK   39  A    between atoms: _92  and  _94
REMARK   40  A    between atoms: _94  and  _95
REMARK   41  A    between atoms: _94  and  _97
REMARK   42  A    between atoms: _97  and  _98
REMARK   43  A    between atoms: _101  and  _103
REMARK   44  A    between atoms: _103  and  _104
REMARK   45  A    between atoms: _103  and  _106
REMARK   46  A    between atoms: _109  and  _111
REMARK   47  A    between atoms: _111  and  _112
REMARK   48  A    between atoms: _111  and  _114
REMARK   49  A    between atoms: _114  and  _115
REMARK   50  A    between atoms: _115  and  _116
REMARK   51  A    between atoms: _118  and  _120
REMARK   52  A    between atoms: _120  and  _121
REMARK   53  A    between atoms: _120  and  _123
REMARK   54  A    between atoms: _123  and  _124
REMARK   55  A    between atoms: _127  and  _129
REMARK   56  A    between atoms: _129  and  _130
REMARK   57  A    between atoms: _132  and  _134
REMARK   58  A    between atoms: _134  and  _135
REMARK   59  A    between atoms: _137  and  _139
REMARK   60  A    between atoms: _139  and  _140
REMARK   61  A    between atoms: _139  and  _142
REMARK   62  A    between atoms: _142  and  _143
REMARK   63  A    between atoms: _146  and  _148
REMARK   64  A    between atoms: _148  and  _149
REMARK   65  A    between atoms: _151  and  _153
REMARK   66  A    between atoms: _153  and  _154
REMARK   67  A    between atoms: _156  and  _158
REMARK   68  A    between atoms: _158  and  _159
REMARK   69  A    between atoms: _158  and  _161
REMARK   70  A    between atoms: _161  and  _162
REMARK   71  A    between atoms: _168  and  _170
REMARK   72  A    between atoms: _170  and  _171
REMARK   73  A    between atoms: _170  and  _173
REMARK   74  A    between atoms: _173  and  _174
REMARK   75  A    between atoms: _177  and  _179
REMARK   76  A    between atoms: _179  and  _180
REMARK   77  A    between atoms: _179  and  _182
REMARK   78  A    between atoms: _185  and  _187
REMARK   79  A    between atoms: _187  and  _188
REMARK   80  A    between atoms: _187  and  _190
REMARK   81  A    between atoms: _190  and  _191
REMARK   82  A    between atoms: _194  and  _196
REMARK   83  A    between atoms: _196  and  _197
REMARK   84  A    between atoms: _196  and  _199
REMARK   85  A    between atoms: _199  and  _200
REMARK   86  A    between atoms: _204  and  _205
REMARK   87  A    between atoms: _210  and  _212
REMARK   88  A    between atoms: _212  and  _213
REMARK   89  A    between atoms: _212  and  _215
REMARK   90  A    between atoms: _218  and  _220
REMARK   91  A    between atoms: _220  and  _221
REMARK   92  A    between atoms: _220  and  _223
REMARK   93  A    between atoms: _223  and  _224
REMARK   94  A    between atoms: _229  and  _231
REMARK   95  A    between atoms: _231  and  _232
REMARK   96  A    between atoms: _231  and  _234
REMARK   97  A    between atoms: _234  and  _235
REMARK   98  A    between atoms: _238  and  _240
REMARK   99  A    between atoms: _240  and  _241
REMARK  100  A    between atoms: _240  and  _243
REMARK  101  A    between atoms: _243  and  _244
REMARK  102  A    between atoms: _247  and  _249
REMARK  103  A    between atoms: _249  and  _250
REMARK  104  A    between atoms: _252  and  _254
REMARK  105  A    between atoms: _254  and  _255
REMARK  106  A    between atoms: _254  and  _257
REMARK  107  A    between atoms: _257  and  _258
REMARK  108  A    between atoms: _258  and  _259
REMARK  109  A    between atoms: _259  and  _260
REMARK  110  A    between atoms: _269  and  _271
REMARK  111  A    between atoms: _271  and  _272
REMARK  112  A    between atoms: _271  and  _274
REMARK  113  A    between atoms: _274  and  _275
REMARK  114  A    between atoms: _280  and  _282
REMARK  115  A    between atoms: _282  and  _283
REMARK  116  A    between atoms: _282  and  _285
REMARK  117  A    between atoms: _285  and  _286
REMARK  118  A    between atoms: _286  and  _287
REMARK  119  A    between atoms: _287  and  _288
REMARK  120  A    between atoms: _297  and  _299
REMARK  121  A    between atoms: _299  and  _300
REMARK  122  A    between atoms: _299  and  _302
REMARK  123  A    between atoms: _302  and  _303
REMARK  124  A    between atoms: _306  and  _308
REMARK  125  A    between atoms: _308  and  _309
REMARK  126  A    between atoms: _308  and  _311
REMARK  127  A    between atoms: _311  and  _312
REMARK  128  A    between atoms: _315  and  _317
REMARK  129  A    between atoms: _317  and  _318
REMARK  130  A    between atoms: _317  and  _320
REMARK  131  A    between atoms: _320  and  _321
REMARK  132  A    between atoms: _324  and  _326
REMARK  133  A    between atoms: _326  and  _327
REMARK  134  A    between atoms: _326  and  _329
REMARK  135  A    between atoms: _329  and  _330
REMARK  136  A    between atoms: _333  and  _335
REMARK  137  A    between atoms: _335  and  _336
REMARK  138  A    between atoms: _338  and  _340
REMARK  139  A    between atoms: _340  and  _341
REMARK  140  A    between atoms: _344  and  _346
REMARK  141  A    between atoms: _346  and  _347
REMARK  142  A    between atoms: _346  and  _349
REMARK  143  A    between atoms: _349  and  _350
REMARK  144  A    between atoms: _353  and  _355
REMARK  145  A    between atoms: _355  and  _356
REMARK  146  A    between atoms: _355  and  _358
REMARK  147  A    between atoms: _358  and  _359
REMARK  148  A    between atoms: _362  and  _364
REMARK  149  A    between atoms: _364  and  _365
REMARK  150  A    between atoms: _364  and  _367
REMARK  151  A    between atoms: _367  and  _368
REMARK  152  A    between atoms: _371  and  _373
REMARK  153  A    between atoms: _373  and  _374
REMARK  154  A    between atoms: _373  and  _376
REMARK  155  A    between atoms: _379  and  _381
REMARK  156  A    between atoms: _381  and  _382
REMARK  157  A    between atoms: _381  and  _384
REMARK  158  A    between atoms: _384  and  _385
REMARK  159  A    between atoms: _388  and  _390
REMARK  160  A    between atoms: _390  and  _391
REMARK  161  A    between atoms: _390  and  _393
REMARK  162  A    between atoms: _393  and  _394
REMARK  163  A    between atoms: _394  and  _395
REMARK  164  A    between atoms: _395  and  _396
REMARK  165  A    between atoms: _396  and  _397
REMARK  166  A    between atoms: _401  and  _403
REMARK  167  A    between atoms: _403  and  _404
REMARK  168  A    between atoms: _403  and  _406
REMARK  169  A    between atoms: _406  and  _407
REMARK  170  A    between atoms: _407  and  _408
REMARK  171  A    between atoms: _410  and  _412
REMARK  172  A    between atoms: _412  and  _413
REMARK  173  A    between atoms: _412  and  _415
REMARK  174  A    between atoms: _415  and  _416
REMARK  175  A    between atoms: _419  and  _421
REMARK  176  A    between atoms: _421  and  _422
REMARK  177  A    between atoms: _424  and  _426
REMARK  178  A    between atoms: _426  and  _427
REMARK  179  A    between atoms: _429  and  _431
REMARK  180  A    between atoms: _431  and  _432
REMARK  181  A    between atoms: _431  and  _434
REMARK  182  A    between atoms: _434  and  _435
REMARK  183  A    between atoms: _438  and  _440
REMARK  184  A    between atoms: _440  and  _441
REMARK  185  A    between atoms: _443  and  _445
REMARK  186  A    between atoms: _445  and  _446
REMARK  187  A    between atoms: _448  and  _450
REMARK  188  A    between atoms: _450  and  _451
REMARK  189  A    between atoms: _450  and  _453
REMARK  190  A    between atoms: _453  and  _454
REMARK  191  A    between atoms: _457  and  _459
REMARK  192  A    between atoms: _459  and  _460
REMARK  193  A    between atoms: _459  and  _462
REMARK  194  A    between atoms: _465  and  _467
REMARK  195  A    between atoms: _467  and  _468
REMARK  196  A    between atoms: _467  and  _470
REMARK  197  A    between atoms: _470  and  _471
REMARK  198  A    between atoms: _474  and  _476
REMARK  199  A    between atoms: _476  and  _477
REMARK  200  A    between atoms: _476  and  _479
REMARK  201  A    between atoms: _479  and  _480
REMARK  202  A    between atoms: _484  and  _485
REMARK  203  A    between atoms: _490  and  _492
REMARK  204  A    between atoms: _492  and  _493
REMARK  205  A    between atoms: _492  and  _495
REMARK  206  A    between atoms: _498  and  _500
REMARK  207  A    between atoms: _500  and  _501
REMARK  208  A    between atoms: _500  and  _503
REMARK  209  A    between atoms: _503  and  _504
REMARK  210  A    between atoms: _509  and  _511
REMARK  211  A    between atoms: _511  and  _512
REMARK  212  A    between atoms: _511  and  _514
REMARK  213  A    between atoms: _514  and  _515
REMARK  214  A    between atoms: _518  and  _520
REMARK  215  A    between atoms: _520  and  _521
REMARK  216  A    between atoms: _520  and  _523
REMARK  217  A    between atoms: _523  and  _524
REMARK  218  A    between atoms: _527  and  _529
REMARK  219  A    between atoms: _529  and  _530
REMARK  220  A    between atoms: _532  and  _534
REMARK  221  A    between atoms: _534  and  _535
REMARK  222  A    between atoms: _534  and  _537
REMARK  223  A    between atoms: _537  and  _538
REMARK  224  A    between atoms: _538  and  _539
REMARK  225  A    between atoms: _539  and  _540
REMARK  226  A    between atoms: _549  and  _551
REMARK  227  A    between atoms: _551  and  _552
REMARK  228  A    between atoms: _551  and  _554
REMARK  229  A    between atoms: _554  and  _555
REMARK                            x       y       z     vdW  Elec       q    Type
REMARK                         _______ _______ _______ _____ _____    ______ ____
ROOT
ATOM      1  O   HOH     1      20.342  32.471  12.151  0.00  0.00    +0.000 OA
ENDROOT
TORSDOF 0
REMARK  Name = ../refined-set-2016/2avo/2avo_pocket.pdb
REMARK  229 active torsions:
REMARK  status: ('A' for Active; 'I' for Inactive)
REMARK    1  A    between atoms: _1  and  _3
REMARK    2  A    between atoms: _3  and  _4
REMARK    3  A    between atoms: _3  and  _6
REMARK    4  A    between atoms: _6  and  _7
REMARK    5  A    between atoms: _7  and  _8
REMARK    6  A    between atoms: _8  and  _9
REMARK    7  A    between atoms: _18  and  _20
REMARK    8  A    between atoms: _20  and  _21
REMARK    9  A    between atoms: _20  and  _23
REMARK   10  A    between atoms: _23  and  _24
REMARK   11  A    between atoms: _27  and  _29
REMARK   12  A    between atoms: _29  and  _30
REMARK   13  A    between atoms: _29  and  _32
REMARK   14  A    between atoms: _32  and  _33
REMARK   15  A    between atoms: _36  and  _38
REMARK   16  A    between atoms: _38  and  _39
REMARK   17  A    between atoms: _38  and  _41
REMARK   18  A    between atoms: _41  and  _42
REMARK   19  A    between atoms: _45  and  _47
REMARK   20  A    between atoms: _47  and  _48
REMARK   21  A    between atoms: _47  and  _50
REMARK   22  A    between atoms: _50  and  _51
REMARK   23  A    between atoms: _54  and  _56
REMARK   24  A    between atoms: _56  and  _57
REMARK   25  A    between atoms: _56  and  _59
REMARK   26  A    between atoms: _59  and  _60
REMARK   27  A    between atoms: _63  and  _65
REMARK   28  A    between atoms: _65  and  _66
REMARK   29  A    between atoms: _68  and  _70
REMARK   30  A    between atoms: _70  and  _71
REMARK   31  A    between atoms: _74  and  _76
REMARK   32  A    between atoms: _76  and  _77
REMARK   33  A    between atoms: _76  and  _79
REMARK   34  A    between atoms: _79  and  _80
REMARK   35  A    between atoms: _83  and  _85
REMARK   36  A    between atoms: _85  and  _86
REMARK   37  A    between atoms: _85  and  _88
REMARK   38  A    between atoms: _88  and  _89
REMARK   39  A    between atoms: _92  and  _94
REMARK   40  A    between atoms: _94  and  _95
REMARK   41  A    between atoms: _94  and  _97
REMARK   42  A    between atoms: _97  and  _98
REMARK   43  A    between atoms: _101  and  _103
REMARK   44  A    between atoms: _103  and  _104
REMARK   45  A    between atoms: _103  and  _106
REMARK   46  A    between atoms: _109  and  _111
REMARK   47  A    between atoms: _111  and  _112
REMARK   48  A    between atoms: _111  and  _114
REMARK   49  A    between atoms: _114  and  _115
REMARK   50  A    between atoms: _115  and  _116
REMARK   51  A    between atoms: _118  and  _120
REMARK   52  A    between atoms: _120  and  _121
REMARK   53  A    between atoms: _120  and  _123
REMARK   54  A    between atoms: _123  and  _124
REMARK   55  A    between atoms: _127  and  _129
REMARK   56  A    between atoms: _129  and  _130
REMARK   57  A    between atoms: _132  and  _134
REMARK   58  A    between atoms: _134  and  _135
REMARK   59  A    between atoms: _137  and  _139
REMARK   60  A    between atoms: _139  and  _140
REMARK   61  A    between atoms: _139  and  _142
REMARK   62  A    between atoms: _142  and  _143
REMARK   63  A    between atoms: _146  and  _148
REMARK   64  A    between atoms: _148  and  _149
REMARK   65  A    between atoms: _151  and  _153
REMARK   66  A    between atoms: _153  and  _154
REMARK   67  A    between atoms: _156  and  _158
REMARK   68  A    between atoms: _158  and  _159
REMARK   69  A    between atoms: _158  and  _161
REMARK   70  A    between atoms: _161  and  _162
REMARK   71  A    between atoms: _168  and  _170
REMARK   72  A    between atoms: _170  and  _171
REMARK   73  A    between atoms: _170  and  _173
REMARK   74  A    between atoms: _173  and  _174
REMARK   75  A    between atoms: _177  and  _179
REMARK   76  A    between atoms: _179  and  _180
REMARK   77  A    between atoms: _179  and  _182
REMARK   78  A    between atoms: _185  and  _187
REMARK   79  A    between atoms: _187  and  _188
REMARK   80  A    between atoms: _187  and  _190
REMARK   81  A    between atoms: _190  and  _191
REMARK   82  A    between atoms: _194  and  _196
REMARK   83  A    between atoms: _196  and  _197
REMARK   84  A    between atoms: _196  and  _199
REMARK   85  A    between atoms: _199  and  _200
REMARK   86  A    between atoms: _204  and  _205
REMARK   87  A    between atoms: _210  and  _212
REMARK   88  A    between atoms: _212  and  _213
REMARK   89  A    between atoms: _212  and  _215
REMARK   90  A    between atoms: _218  and  _220
REMARK   91  A    between atoms: _220  and  _221
REMARK   92  A    between atoms: _220  and  _223
REMARK   93  A    between atoms: _223  and  _224
REMARK   94  A    between atoms: _229  and  _231
REMARK   95  A    between atoms: _231  and  _232
REMARK   96  A    between atoms: _231  and  _234
REMARK   97  A    between atoms: _234  and  _235
REMARK   98  A    between atoms: _238  and  _240
REMARK   99  A    between atoms: _240  and  _241
REMARK  100  A    between atoms: _240  and  _243
REMARK  101  A    between atoms: _243  and  _244
REMARK  102  A    between atoms: _247  and  _249
REMARK  103  A    between atoms: _249  and  _250
REMARK  104  A    between atoms: _252  and  _254
REMARK  105  A    between atoms: _254  and  _255
REMARK  106  A    between atoms: _254  and  _257
REMARK  107  A    between atoms: _257  and  _258
REMARK  108  A    between atoms: _258  and  _259
REMARK  109  A    between atoms: _259  and  _260
REMARK  110  A    between atoms: _269  and  _271
REMARK  111  A    between atoms: _271  and  _272
REMARK  112  A    between atoms: _271  and  _274
REMARK  113  A    between atoms: _274  and  _275
REMARK  114  A    between atoms: _280  and  _282
REMARK  115  A    between atoms: _282  and  _283
REMARK  116  A    between atoms: _282  and  _285
REMARK  117  A    between atoms: _285  and  _286
REMARK  118  A    between atoms: _286  and  _287
REMARK  119  A    between atoms: _287  and  _288
REMARK  120  A    between atoms: _297  and  _299
REMARK  121  A    between atoms: _299  and  _300
REMARK  122  A    between atoms: _299  and  _302
REMARK  123  A    between atoms: _302  and  _303
REMARK  124  A    between atoms: _306  and  _308
REMARK  125  A    between atoms: _308  and  _309
REMARK  126  A    between atoms: _308  and  _311
REMARK  127  A    between atoms: _311  and  _312
REMARK  128  A    between atoms: _315  and  _317
REMARK  129  A    between atoms: _317  and  _318
REMARK  130  A    between atoms: _317  and  _320
REMARK  131  A    between atoms: _320  and  _321
REMARK  132  A    between atoms: _324  and  _326
REMARK  133  A    between atoms: _326  and  _327
REMARK  134  A    between atoms: _326  and  _329
REMARK  135  A    between atoms: _329  and  _330
REMARK  136  A    between atoms: _333  and  _335
REMARK  137  A    between atoms: _335  and  _336
REMARK  138  A    between atoms: _338  and  _340
REMARK  139  A    between atoms: _340  and  _341
REMARK  140  A    between atoms: _344  and  _346
REMARK  141  A    between atoms: _346  and  _347
REMARK  142  A    between atoms: _346  and  _349
REMARK  143  A    between atoms: _349  and  _350
REMARK  144  A    between atoms: _353  and  _355
REMARK  145  A    between atoms: _355  and  _356
REMARK  146  A    between atoms: _355  and  _358
REMARK  147  A    between atoms: _358  and  _359
REMARK  148  A    between atoms: _362  and  _364
REMARK  149  A    between atoms: _364  and  _365
REMARK  150  A    between atoms: _364  and  _367
REMARK  151  A    between atoms: _367  and  _368
REMARK  152  A    between atoms: _371  and  _373
REMARK  153  A    between atoms: _373  and  _374
REMARK  154  A    between atoms: _373  and  _376
REMARK  155  A    between atoms: _379  and  _381
REMARK  156  A    between atoms: _381  and  _382
REMARK  157  A    between atoms: _381  and  _384
REMARK  158  A    between atoms: _384  and  _385
REMARK  159  A    between atoms: _388  and  _390
REMARK  160  A    between atoms: _390  and  _391
REMARK  161  A    between atoms: _390  and  _393
REMARK  162  A    between atoms: _393  and  _394
REMARK  163  A    between atoms: _394  and  _395
REMARK  164  A    between atoms: _395  and  _396
REMARK  165  A    between atoms: _396  and  _397
REMARK  166  A    between atoms: _401  and  _403
REMARK  167  A    between atoms: _403  and  _404
REMARK  168  A    between atoms: _403  and  _406
REMARK  169  A    between atoms: _406  and  _407
REMARK  170  A    between atoms: _407  and  _408
REMARK  171  A    between atoms: _410  and  _412
REMARK  172  A    between atoms: _412  and  _413
REMARK  173  A    between atoms: _412  and  _415
REMARK  174  A    between atoms: _415  and  _416
REMARK  175  A    between atoms: _419  and  _421
REMARK  176  A    between atoms: _421  and  _422
REMARK  177  A    between atoms: _424  and  _426
REMARK  178  A    between atoms: _426  and  _427
REMARK  179  A    between atoms: _429  and  _431
REMARK  180  A    between atoms: _431  and  _432
REMARK  181  A    between atoms: _431  and  _434
REMARK  182  A    between atoms: _434  and  _435
REMARK  183  A    between atoms: _438  and  _440
REMARK  184  A    between atoms: _440  and  _441
REMARK  185  A    between atoms: _443  and  _445
REMARK  186  A    between atoms: _445  and  _446
REMARK  187  A    between atoms: _448  and  _450
REMARK  188  A    between atoms: _450  and  _451
REMARK  189  A    between atoms: _450  and  _453
REMARK  190  A    between atoms: _453  and  _454
REMARK  191  A    between atoms: _457  and  _459
REMARK  192  A    between atoms: _459  and  _460
REMARK  193  A    between atoms: _459  and  _462
REMARK  194  A    between atoms: _465  and  _467
REMARK  195  A    between atoms: _467  and  _468
REMARK  196  A    between atoms: _467  and  _470
REMARK  197  A    between atoms: _470  and  _471
REMARK  198  A    between atoms: _474  and  _476
REMARK  199  A    between atoms: _476  and  _477
REMARK  200  A    between atoms: _476  and  _479
REMARK  201  A    between atoms: _479  and  _480
REMARK  202  A    between atoms: _484  and  _485
REMARK  203  A    between atoms: _490  and  _492
REMARK  204  A    between atoms: _492  and  _493
REMARK  205  A    between atoms: _492  and  _495
REMARK  206  A    between atoms: _498  and  _500
REMARK  207  A    between atoms: _500  and  _501
REMARK  208  A    between atoms: _500  and  _503
REMARK  209  A    between atoms: _503  and  _504
REMARK  210  A    between atoms: _509  and  _511
REMARK  211  A    between atoms: _511  and  _512
REMARK  212  A    between atoms: _511  and  _514
REMARK  213  A    between atoms: _514  and  _515
REMARK  214  A    between atoms: _518  and  _520
REMARK  215  A    between atoms: _520  and  _521
REMARK  216  A    between atoms: _520  and  _523
REMARK  217  A    between atoms: _523  and  _524
REMARK  218  A    between atoms: _527  and  _529
REMARK  219  A    between atoms: _529  and  _530
REMARK  220  A    between atoms: _532  and  _534
REMARK  221  A    between atoms: _534  and  _535
REMARK  222  A    between atoms: _534  and  _537
REMARK  223  A    between atoms: _537  and  _538
REMARK  224  A    between atoms: _538  and  _539
REMARK  225  A    between atoms: _539  and  _540
REMARK  226  A    between atoms: _549  and  _551
REMARK  227  A    between atoms: _551  and  _552
REMARK  228  A    between atoms: _551  and  _554
REMARK  229  A    between atoms: _554  and  _555
REMARK                            x       y       z     vdW  Elec       q    Type
REMARK                         _______ _______ _______ _____ _____    ______ ____
ROOT
ATOM      1  O   HOH     1      20.547  21.941  15.668  0.00  0.00    +0.000 OA
ENDROOT
TORSDOF 0
REMARK  Name = ../refined-set-2016/2avo/2avo_pocket.pdb
REMARK  229 active torsions:
REMARK  status: ('A' for Active; 'I' for Inactive)
REMARK    1  A    between atoms: _1  and  _3
REMARK    2  A    between atoms: _3  and  _4
REMARK    3  A    between atoms: _3  and  _6
REMARK    4  A    between atoms: _6  and  _7
REMARK    5  A    between atoms: _7  and  _8
REMARK    6  A    between atoms: _8  and  _9
REMARK    7  A    between atoms: _18  and  _20
REMARK    8  A    between atoms: _20  and  _21
REMARK    9  A    between atoms: _20  and  _23
REMARK   10  A    between atoms: _23  and  _24
REMARK   11  A    between atoms: _27  and  _29
REMARK   12  A    between atoms: _29  and  _30
REMARK   13  A    between atoms: _29  and  _32
REMARK   14  A    between atoms: _32  and  _33
REMARK   15  A    between atoms: _36  and  _38
REMARK   16  A    between atoms: _38  and  _39
REMARK   17  A    between atoms: _38  and  _41
REMARK   18  A    between atoms: _41  and  _42
REMARK   19  A    between atoms: _45  and  _47
REMARK   20  A    between atoms: _47  and  _48
REMARK   21  A    between atoms: _47  and  _50
REMARK   22  A    between atoms: _50  and  _51
REMARK   23  A    between atoms: _54  and  _56
REMARK   24  A    between atoms: _56  and  _57
REMARK   25  A    between atoms: _56  and  _59
REMARK   26  A    between atoms: _59  and  _60
REMARK   27  A    between atoms: _63  and  _65
REMARK   28  A    between atoms: _65  and  _66
REMARK   29  A    between atoms: _68  and  _70
REMARK   30  A    between atoms: _70  and  _71
REMARK   31  A    between atoms: _74  and  _76
REMARK   32  A    between atoms: _76  and  _77
REMARK   33  A    between atoms: _76  and  _79
REMARK   34  A    between atoms: _79  and  _80
REMARK   35  A    between atoms: _83  and  _85
REMARK   36  A    between atoms: _85  and  _86
REMARK   37  A    between atoms: _85  and  _88
REMARK   38  A    between atoms: _88  and  _89
REMARK   39  A    between atoms: _92  and  _94
REMARK   40  A    between atoms: _94  and  _95
REMARK   41  A    between atoms: _94  and  _97
REMARK   42  A    between atoms: _97  and  _98
REMARK   43  A    between atoms: _101  and  _103
REMARK   44  A    between atoms: _103  and  _104
REMARK   45  A    between atoms: _103  and  _106
REMARK   46  A    between atoms: _109  and  _111
REMARK   47  A    between atoms: _111  and  _112
REMARK   48  A    between atoms: _111  and  _114
REMARK   49  A    between atoms: _114  and  _115
REMARK   50  A    between atoms: _115  and  _116
REMARK   51  A    between atoms: _118  and  _120
REMARK   52  A    between atoms: _120  and  _121
REMARK   53  A    between atoms: _120  and  _123
REMARK   54  A    between atoms: _123  and  _124
REMARK   55  A    between atoms: _127  and  _129
REMARK   56  A    between atoms: _129  and  _130
REMARK   57  A    between atoms: _132  and  _134
REMARK   58  A    between atoms: _134  and  _135
REMARK   59  A    between atoms: _137  and  _139
REMARK   60  A    between atoms: _139  and  _140
REMARK   61  A    between atoms: _139  and  _142
REMARK   62  A    between atoms: _142  and  _143
REMARK   63  A    between atoms: _146  and  _148
REMARK   64  A    between atoms: _148  and  _149
REMARK   65  A    between atoms: _151  and  _153
REMARK   66  A    between atoms: _153  and  _154
REMARK   67  A    between atoms: _156  and  _158
REMARK   68  A    between atoms: _158  and  _159
REMARK   69  A    between atoms: _158  and  _161
REMARK   70  A    between atoms: _161  and  _162
REMARK   71  A    between atoms: _168  and  _170
REMARK   72  A    between atoms: _170  and  _171
REMARK   73  A    between atoms: _170  and  _173
REMARK   74  A    between atoms: _173  and  _174
REMARK   75  A    between atoms: _177  and  _179
REMARK   76  A    between atoms: _179  and  _180
REMARK   77  A    between atoms: _179  and  _182
REMARK   78  A    between atoms: _185  and  _187
REMARK   79  A    between atoms: _187  and  _188
REMARK   80  A    between atoms: _187  and  _190
REMARK   81  A    between atoms: _190  and  _191
REMARK   82  A    between atoms: _194  and  _196
REMARK   83  A    between atoms: _196  and  _197
REMARK   84  A    between atoms: _196  and  _199
REMARK   85  A    between atoms: _199  and  _200
REMARK   86  A    between atoms: _204  and  _205
REMARK   87  A    between atoms: _210  and  _212
REMARK   88  A    between atoms: _212  and  _213
REMARK   89  A    between atoms: _212  and  _215
REMARK   90  A    between atoms: _218  and  _220
REMARK   91  A    between atoms: _220  and  _221
REMARK   92  A    between atoms: _220  and  _223
REMARK   93  A    between atoms: _223  and  _224
REMARK   94  A    between atoms: _229  and  _231
REMARK   95  A    between atoms: _231  and  _232
REMARK   96  A    between atoms: _231  and  _234
REMARK   97  A    between atoms: _234  and  _235
REMARK   98  A    between atoms: _238  and  _240
REMARK   99  A    between atoms: _240  and  _241
REMARK  100  A    between atoms: _240  and  _243
REMARK  101  A    between atoms: _243  and  _244
REMARK  102  A    between atoms: _247  and  _249
REMARK  103  A    between atoms: _249  and  _250
REMARK  104  A    between atoms: _252  and  _254
REMARK  105  A    between atoms: _254  and  _255
REMARK  106  A    between atoms: _254  and  _257
REMARK  107  A    between atoms: _257  and  _258
REMARK  108  A    between atoms: _258  and  _259
REMARK  109  A    between atoms: _259  and  _260
REMARK  110  A    between atoms: _269  and  _271
REMARK  111  A    between atoms: _271  and  _272
REMARK  112  A    between atoms: _271  and  _274
REMARK  113  A    between atoms: _274  and  _275
REMARK  114  A    between atoms: _280  and  _282
REMARK  115  A    between atoms: _282  and  _283
REMARK  116  A    between atoms: _282  and  _285
REMARK  117  A    between atoms: _285  and  _286
REMARK  118  A    between atoms: _286  and  _287
REMARK  119  A    between atoms: _287  and  _288
REMARK  120  A    between atoms: _297  and  _299
REMARK  121  A    between atoms: _299  and  _300
REMARK  122  A    between atoms: _299  and  _302
REMARK  123  A    between atoms: _302  and  _303
REMARK  124  A    between atoms: _306  and  _308
REMARK  125  A    between atoms: _308  and  _309
REMARK  126  A    between atoms: _308  and  _311
REMARK  127  A    between atoms: _311  and  _312
REMARK  128  A    between atoms: _315  and  _317
REMARK  129  A    between atoms: _317  and  _318
REMARK  130  A    between atoms: _317  and  _320
REMARK  131  A    between atoms: _320  and  _321
REMARK  132  A    between atoms: _324  and  _326
REMARK  133  A    between atoms: _326  and  _327
REMARK  134  A    between atoms: _326  and  _329
REMARK  135  A    between atoms: _329  and  _330
REMARK  136  A    between atoms: _333  and  _335
REMARK  137  A    between atoms: _335  and  _336
REMARK  138  A    between atoms: _338  and  _340
REMARK  139  A    between atoms: _340  and  _341
REMARK  140  A    between atoms: _344  and  _346
REMARK  141  A    between atoms: _346  and  _347
REMARK  142  A    between atoms: _346  and  _349
REMARK  143  A    between atoms: _349  and  _350
REMARK  144  A    between atoms: _353  and  _355
REMARK  145  A    between atoms: _355  and  _356
REMARK  146  A    between atoms: _355  and  _358
REMARK  147  A    between atoms: _358  and  _359
REMARK  148  A    between atoms: _362  and  _364
REMARK  149  A    between atoms: _364  and  _365
REMARK  150  A    between atoms: _364  and  _367
REMARK  151  A    between atoms: _367  and  _368
REMARK  152  A    between atoms: _371  and  _373
REMARK  153  A    between atoms: _373  and  _374
REMARK  154  A    between atoms: _373  and  _376
REMARK  155  A    between atoms: _379  and  _381
REMARK  156  A    between atoms: _381  and  _382
REMARK  157  A    between atoms: _381  and  _384
REMARK  158  A    between atoms: _384  and  _385
REMARK  159  A    between atoms: _388  and  _390
REMARK  160  A    between atoms: _390  and  _391
REMARK  161  A    between atoms: _390  and  _393
REMARK  162  A    between atoms: _393  and  _394
REMARK  163  A    between atoms: _394  and  _395
REMARK  164  A    between atoms: _395  and  _396
REMARK  165  A    between atoms: _396  and  _397
REMARK  166  A    between atoms: _401  and  _403
REMARK  167  A    between atoms: _403  and  _404
REMARK  168  A    between atoms: _403  and  _406
REMARK  169  A    between atoms: _406  and  _407
REMARK  170  A    between atoms: _407  and  _408
REMARK  171  A    between atoms: _410  and  _412
REMARK  172  A    between atoms: _412  and  _413
REMARK  173  A    between atoms: _412  and  _415
REMARK  174  A    between atoms: _415  and  _416
REMARK  175  A    between atoms: _419  and  _421
REMARK  176  A    between atoms: _421  and  _422
REMARK  177  A    between atoms: _424  and  _426
REMARK  178  A    between atoms: _426  and  _427
REMARK  179  A    between atoms: _429  and  _431
REMARK  180  A    between atoms: _431  and  _432
REMARK  181  A    between atoms: _431  and  _434
REMARK  182  A    between atoms: _434  and  _435
REMARK  183  A    between atoms: _438  and  _440
REMARK  184  A    between atoms: _440  and  _441
REMARK  185  A    between atoms: _443  and  _445
REMARK  186  A    between atoms: _445  and  _446
REMARK  187  A    between atoms: _448  and  _450
REMARK  188  A    between atoms: _450  and  _451
REMARK  189  A    between atoms: _450  and  _453
REMARK  190  A    between atoms: _453  and  _454
REMARK  191  A    between atoms: _457  and  _459
REMARK  192  A    between atoms: _459  and  _460
REMARK  193  A    between atoms: _459  and  _462
REMARK  194  A    between atoms: _465  and  _467
REMARK  195  A    between atoms: _467  and  _468
REMARK  196  A    between atoms: _467  and  _470
REMARK  197  A    between atoms: _470  and  _471
REMARK  198  A    between atoms: _474  and  _476
REMARK  199  A    between atoms: _476  and  _477
REMARK  200  A    between atoms: _476  and  _479
REMARK  201  A    between atoms: _479  and  _480
REMARK  202  A    between atoms: _484  and  _485
REMARK  203  A    between atoms: _490  and  _492
REMARK  204  A    between atoms: _492  and  _493
REMARK  205  A    between atoms: _492  and  _495
REMARK  206  A    between atoms: _498  and  _500
REMARK  207  A    between atoms: _500  and  _501
REMARK  208  A    between atoms: _500  and  _503
REMARK  209  A    between atoms: _503  and  _504
REMARK  210  A    between atoms: _509  and  _511
REMARK  211  A    between atoms: _511  and  _512
REMARK  212  A    between atoms: _511  and  _514
REMARK  213  A    between atoms: _514  and  _515
REMARK  214  A    between atoms: _518  and  _520
REMARK  215  A    between atoms: _520  and  _521
REMARK  216  A    between atoms: _520  and  _523
REMARK  217  A    between atoms: _523  and  _524
REMARK  218  A    between atoms: _527  and  _529
REMARK  219  A    between atoms: _529  and  _530
REMARK  220  A    between atoms: _532  and  _534
REMARK  221  A    between atoms: _534  and  _535
REMARK  222  A    between atoms: _534  and  _537
REMARK  223  A    between atoms: _537  and  _538
REMARK  224  A    between atoms: _538  and  _539
REMARK  225  A    between atoms: _539  and  _540
REMARK  226  A    between atoms: _549  and  _551
REMARK  227  A    between atoms: _551  and  _552
REMARK  228  A    between atoms: _551  and  _554
REMARK  229  A    between atoms: _554  and  _555
REMARK                            x       y       z     vdW  Elec       q    Type
REMARK                         _______ _______ _______ _____ _____    ______ ____
ROOT
ATOM      1  O   HOH     1      19.992  23.337  13.381  0.00  0.00    +0.000 OA
ENDROOT
TORSDOF 0
REMARK  Name = ../refined-set-2016/2avo/2avo_pocket.pdb
REMARK  229 active torsions:
REMARK  status: ('A' for Active; 'I' for Inactive)
REMARK    1  A    between atoms: _1  and  _3
REMARK    2  A    between atoms: _3  and  _4
REMARK    3  A    between atoms: _3  and  _6
REMARK    4  A    between atoms: _6  and  _7
REMARK    5  A    between atoms: _7  and  _8
REMARK    6  A    between atoms: _8  and  _9
REMARK    7  A    between atoms: _18  and  _20
REMARK    8  A    between atoms: _20  and  _21
REMARK    9  A    between atoms: _20  and  _23
REMARK   10  A    between atoms: _23  and  _24
REMARK   11  A    between atoms: _27  and  _29
REMARK   12  A    between atoms: _29  and  _30
REMARK   13  A    between atoms: _29  and  _32
REMARK   14  A    between atoms: _32  and  _33
REMARK   15  A    between atoms: _36  and  _38
REMARK   16  A    between atoms: _38  and  _39
REMARK   17  A    between atoms: _38  and  _41
REMARK   18  A    between atoms: _41  and  _42
REMARK   19  A    between atoms: _45  and  _47
REMARK   20  A    between atoms: _47  and  _48
REMARK   21  A    between atoms: _47  and  _50
REMARK   22  A    between atoms: _50  and  _51
REMARK   23  A    between atoms: _54  and  _56
REMARK   24  A    between atoms: _56  and  _57
REMARK   25  A    between atoms: _56  and  _59
REMARK   26  A    between atoms: _59  and  _60
REMARK   27  A    between atoms: _63  and  _65
REMARK   28  A    between atoms: _65  and  _66
REMARK   29  A    between atoms: _68  and  _70
REMARK   30  A    between atoms: _70  and  _71
REMARK   31  A    between atoms: _74  and  _76
REMARK   32  A    between atoms: _76  and  _77
REMARK   33  A    between atoms: _76  and  _79
REMARK   34  A    between atoms: _79  and  _80
REMARK   35  A    between atoms: _83  and  _85
REMARK   36  A    between atoms: _85  and  _86
REMARK   37  A    between atoms: _85  and  _88
REMARK   38  A    between atoms: _88  and  _89
REMARK   39  A    between atoms: _92  and  _94
REMARK   40  A    between atoms: _94  and  _95
REMARK   41  A    between atoms: _94  and  _97
REMARK   42  A    between atoms: _97  and  _98
REMARK   43  A    between atoms: _101  and  _103
REMARK   44  A    between atoms: _103  and  _104
REMARK   45  A    between atoms: _103  and  _106
REMARK   46  A    between atoms: _109  and  _111
REMARK   47  A    between atoms: _111  and  _112
REMARK   48  A    between atoms: _111  and  _114
REMARK   49  A    between atoms: _114  and  _115
REMARK   50  A    between atoms: _115  and  _116
REMARK   51  A    between atoms: _118  and  _120
REMARK   52  A    between atoms: _120  and  _121
REMARK   53  A    between atoms: _120  and  _123
REMARK   54  A    between atoms: _123  and  _124
REMARK   55  A    between atoms: _127  and  _129
REMARK   56  A    between atoms: _129  and  _130
REMARK   57  A    between atoms: _132  and  _134
REMARK   58  A    between atoms: _134  and  _135
REMARK   59  A    between atoms: _137  and  _139
REMARK   60  A    between atoms: _139  and  _140
REMARK   61  A    between atoms: _139  and  _142
REMARK   62  A    between atoms: _142  and  _143
REMARK   63  A    between atoms: _146  and  _148
REMARK   64  A    between atoms: _148  and  _149
REMARK   65  A    between atoms: _151  and  _153
REMARK   66  A    between atoms: _153  and  _154
REMARK   67  A    between atoms: _156  and  _158
REMARK   68  A    between atoms: _158  and  _159
REMARK   69  A    between atoms: _158  and  _161
REMARK   70  A    between atoms: _161  and  _162
REMARK   71  A    between atoms: _168  and  _170
REMARK   72  A    between atoms: _170  and  _171
REMARK   73  A    between atoms: _170  and  _173
REMARK   74  A    between atoms: _173  and  _174
REMARK   75  A    between atoms: _177  and  _179
REMARK   76  A    between atoms: _179  and  _180
REMARK   77  A    between atoms: _179  and  _182
REMARK   78  A    between atoms: _185  and  _187
REMARK   79  A    between atoms: _187  and  _188
REMARK   80  A    between atoms: _187  and  _190
REMARK   81  A    between atoms: _190  and  _191
REMARK   82  A    between atoms: _194  and  _196
REMARK   83  A    between atoms: _196  and  _197
REMARK   84  A    between atoms: _196  and  _199
REMARK   85  A    between atoms: _199  and  _200
REMARK   86  A    between atoms: _204  and  _205
REMARK   87  A    between atoms: _210  and  _212
REMARK   88  A    between atoms: _212  and  _213
REMARK   89  A    between atoms: _212  and  _215
REMARK   90  A    between atoms: _218  and  _220
REMARK   91  A    between atoms: _220  and  _221
REMARK   92  A    between atoms: _220  and  _223
REMARK   93  A    between atoms: _223  and  _224
REMARK   94  A    between atoms: _229  and  _231
REMARK   95  A    between atoms: _231  and  _232
REMARK   96  A    between atoms: _231  and  _234
REMARK   97  A    between atoms: _234  and  _235
REMARK   98  A    between atoms: _238  and  _240
REMARK   99  A    between atoms: _240  and  _241
REMARK  100  A    between atoms: _240  and  _243
REMARK  101  A    between atoms: _243  and  _244
REMARK  102  A    between atoms: _247  and  _249
REMARK  103  A    between atoms: _249  and  _250
REMARK  104  A    between atoms: _252  and  _254
REMARK  105  A    between atoms: _254  and  _255
REMARK  106  A    between atoms: _254  and  _257
REMARK  107  A    between atoms: _257  and  _258
REMARK  108  A    between atoms: _258  and  _259
REMARK  109  A    between atoms: _259  and  _260
REMARK  110  A    between atoms: _269  and  _271
REMARK  111  A    between atoms: _271  and  _272
REMARK  112  A    between atoms: _271  and  _274
REMARK  113  A    between atoms: _274  and  _275
REMARK  114  A    between atoms: _280  and  _282
REMARK  115  A    between atoms: _282  and  _283
REMARK  116  A    between atoms: _282  and  _285
REMARK  117  A    between atoms: _285  and  _286
REMARK  118  A    between atoms: _286  and  _287
REMARK  119  A    between atoms: _287  and  _288
REMARK  120  A    between atoms: _297  and  _299
REMARK  121  A    between atoms: _299  and  _300
REMARK  122  A    between atoms: _299  and  _302
REMARK  123  A    between atoms: _302  and  _303
REMARK  124  A    between atoms: _306  and  _308
REMARK  125  A    between atoms: _308  and  _309
REMARK  126  A    between atoms: _308  and  _311
REMARK  127  A    between atoms: _311  and  _312
REMARK  128  A    between atoms: _315  and  _317
REMARK  129  A    between atoms: _317  and  _318
REMARK  130  A    between atoms: _317  and  _320
REMARK  131  A    between atoms: _320  and  _321
REMARK  132  A    between atoms: _324  and  _326
REMARK  133  A    between atoms: _326  and  _327
REMARK  134  A    between atoms: _326  and  _329
REMARK  135  A    between atoms: _329  and  _330
REMARK  136  A    between atoms: _333  and  _335
REMARK  137  A    between atoms: _335  and  _336
REMARK  138  A    between atoms: _338  and  _340
REMARK  139  A    between atoms: _340  and  _341
REMARK  140  A    between atoms: _344  and  _346
REMARK  141  A    between atoms: _346  and  _347
REMARK  142  A    between atoms: _346  and  _349
REMARK  143  A    between atoms: _349  and  _350
REMARK  144  A    between atoms: _353  and  _355
REMARK  145  A    between atoms: _355  and  _356
REMARK  146  A    between atoms: _355  and  _358
REMARK  147  A    between atoms: _358  and  _359
REMARK  148  A    between atoms: _362  and  _364
REMARK  149  A    between atoms: _364  and  _365
REMARK  150  A    between atoms: _364  and  _367
REMARK  151  A    between atoms: _367  and  _368
REMARK  152  A    between atoms: _371  and  _373
REMARK  153  A    between atoms: _373  and  _374
REMARK  154  A    between atoms: _373  and  _376
REMARK  155  A    between atoms: _379  and  _381
REMARK  156  A    between atoms: _381  and  _382
REMARK  157  A    between atoms: _381  and  _384
REMARK  158  A    between atoms: _384  and  _385
REMARK  159  A    between atoms: _388  and  _390
REMARK  160  A    between atoms: _390  and  _391
REMARK  161  A    between atoms: _390  and  _393
REMARK  162  A    between atoms: _393  and  _394
REMARK  163  A    between atoms: _394  and  _395
REMARK  164  A    between atoms: _395  and  _396
REMARK  165  A    between atoms: _396  and  _397
REMARK  166  A    between atoms: _401  and  _403
REMARK  167  A    between atoms: _403  and  _404
REMARK  168  A    between atoms: _403  and  _406
REMARK  169  A    between atoms: _406  and  _407
REMARK  170  A    between atoms: _407  and  _408
REMARK  171  A    between atoms: _410  and  _412
REMARK  172  A    between atoms: _412  and  _413
REMARK  173  A    between atoms: _412  and  _415
REMARK  174  A    between atoms: _415  and  _416
REMARK  175  A    between atoms: _419  and  _421
REMARK  176  A    between atoms: _421  and  _422
REMARK  177  A    between atoms: _424  and  _426
REMARK  178  A    between atoms: _426  and  _427
REMARK  179  A    between atoms: _429  and  _431
REMARK  180  A    between atoms: _431  and  _432
REMARK  181  A    between atoms: _431  and  _434
REMARK  182  A    between atoms: _434  and  _435
REMARK  183  A    between atoms: _438  and  _440
REMARK  184  A    between atoms: _440  and  _441
REMARK  185  A    between atoms: _443  and  _445
REMARK  186  A    between atoms: _445  and  _446
REMARK  187  A    between atoms: _448  and  _450
REMARK  188  A    between atoms: _450  and  _451
REMARK  189  A    between atoms: _450  and  _453
REMARK  190  A    between atoms: _453  and  _454
REMARK  191  A    between atoms: _457  and  _459
REMARK  192  A    between atoms: _459  and  _460
REMARK  193  A    between atoms: _459  and  _462
REMARK  194  A    between atoms: _465  and  _467
REMARK  195  A    between atoms: _467  and  _468
REMARK  196  A    between atoms: _467  and  _470
REMARK  197  A    between atoms: _470  and  _471
REMARK  198  A    between atoms: _474  and  _476
REMARK  199  A    between atoms: _476  and  _477
REMARK  200  A    between atoms: _476  and  _479
REMARK  201  A    between atoms: _479  and  _480
REMARK  202  A    between atoms: _484  and  _485
REMARK  203  A    between atoms: _490  and  _492
REMARK  204  A    between atoms: _492  and  _493
REMARK  205  A    between atoms: _492  and  _495
REMARK  206  A    between atoms: _498  and  _500
REMARK  207  A    between atoms: _500  and  _501
REMARK  208  A    between atoms: _500  and  _503
REMARK  209  A    between atoms: _503  and  _504
REMARK  210  A    between atoms: _509  and  _511
REMARK  211  A    between atoms: _511  and  _512
REMARK  212  A    between atoms: _511  and  _514
REMARK  213  A    between atoms: _514  and  _515
REMARK  214  A    between atoms: _518  and  _520
REMARK  215  A    between atoms: _520  and  _521
REMARK  216  A    between atoms: _520  and  _523
REMARK  217  A    between atoms: _523  and  _524
REMARK  218  A    between atoms: _527  and  _529
REMARK  219  A    between atoms: _529  and  _530
REMARK  220  A    between atoms: _532  and  _534
REMARK  221  A    between atoms: _534  and  _535
REMARK  222  A    between atoms: _534  and  _537
REMARK  223  A    between atoms: _537  and  _538
REMARK  224  A    between atoms: _538  and  _539
REMARK  225  A    between atoms: _539  and  _540
REMARK  226  A    between atoms: _549  and  _551
REMARK  227  A    between atoms: _551  and  _552
REMARK  228  A    between atoms: _551  and  _554
REMARK  229  A    between atoms: _554  and  _555
REMARK                            x       y       z     vdW  Elec       q    Type
REMARK                         _______ _______ _______ _____ _____    ______ ____
ROOT
ATOM      1  O   HOH     1      31.810  23.687  12.187  0.00  0.00    +0.000 OA
ENDROOT
TORSDOF 0
REMARK  Name = ../refined-set-2016/2avo/2avo_pocket.pdb
REMARK  229 active torsions:
REMARK  status: ('A' for Active; 'I' for Inactive)
REMARK    1  A    between atoms: _1  and  _3
REMARK    2  A    between atoms: _3  and  _4
REMARK    3  A    between atoms: _3  and  _6
REMARK    4  A    between atoms: _6  and  _7
REMARK    5  A    between atoms: _7  and  _8
REMARK    6  A    between atoms: _8  and  _9
REMARK    7  A    between atoms: _18  and  _20
REMARK    8  A    between atoms: _20  and  _21
REMARK    9  A    between atoms: _20  and  _23
REMARK   10  A    between atoms: _23  and  _24
REMARK   11  A    between atoms: _27  and  _29
REMARK   12  A    between atoms: _29  and  _30
REMARK   13  A    between atoms: _29  and  _32
REMARK   14  A    between atoms: _32  and  _33
REMARK   15  A    between atoms: _36  and  _38
REMARK   16  A    between atoms: _38  and  _39
REMARK   17  A    between atoms: _38  and  _41
REMARK   18  A    between atoms: _41  and  _42
REMARK   19  A    between atoms: _45  and  _47
REMARK   20  A    between atoms: _47  and  _48
REMARK   21  A    between atoms: _47  and  _50
REMARK   22  A    between atoms: _50  and  _51
REMARK   23  A    between atoms: _54  and  _56
REMARK   24  A    between atoms: _56  and  _57
REMARK   25  A    between atoms: _56  and  _59
REMARK   26  A    between atoms: _59  and  _60
REMARK   27  A    between atoms: _63  and  _65
REMARK   28  A    between atoms: _65  and  _66
REMARK   29  A    between atoms: _68  and  _70
REMARK   30  A    between atoms: _70  and  _71
REMARK   31  A    between atoms: _74  and  _76
REMARK   32  A    between atoms: _76  and  _77
REMARK   33  A    between atoms: _76  and  _79
REMARK   34  A    between atoms: _79  and  _80
REMARK   35  A    between atoms: _83  and  _85
REMARK   36  A    between atoms: _85  and  _86
REMARK   37  A    between atoms: _85  and  _88
REMARK   38  A    between atoms: _88  and  _89
REMARK   39  A    between atoms: _92  and  _94
REMARK   40  A    between atoms: _94  and  _95
REMARK   41  A    between atoms: _94  and  _97
REMARK   42  A    between atoms: _97  and  _98
REMARK   43  A    between atoms: _101  and  _103
REMARK   44  A    between atoms: _103  and  _104
REMARK   45  A    between atoms: _103  and  _106
REMARK   46  A    between atoms: _109  and  _111
REMARK   47  A    between atoms: _111  and  _112
REMARK   48  A    between atoms: _111  and  _114
REMARK   49  A    between atoms: _114  and  _115
REMARK   50  A    between atoms: _115  and  _116
REMARK   51  A    between atoms: _118  and  _120
REMARK   52  A    between atoms: _120  and  _121
REMARK   53  A    between atoms: _120  and  _123
REMARK   54  A    between atoms: _123  and  _124
REMARK   55  A    between atoms: _127  and  _129
REMARK   56  A    between atoms: _129  and  _130
REMARK   57  A    between atoms: _132  and  _134
REMARK   58  A    between atoms: _134  and  _135
REMARK   59  A    between atoms: _137  and  _139
REMARK   60  A    between atoms: _139  and  _140
REMARK   61  A    between atoms: _139  and  _142
REMARK   62  A    between atoms: _142  and  _143
REMARK   63  A    between atoms: _146  and  _148
REMARK   64  A    between atoms: _148  and  _149
REMARK   65  A    between atoms: _151  and  _153
REMARK   66  A    between atoms: _153  and  _154
REMARK   67  A    between atoms: _156  and  _158
REMARK   68  A    between atoms: _158  and  _159
REMARK   69  A    between atoms: _158  and  _161
REMARK   70  A    between atoms: _161  and  _162
REMARK   71  A    between atoms: _168  and  _170
REMARK   72  A    between atoms: _170  and  _171
REMARK   73  A    between atoms: _170  and  _173
REMARK   74  A    between atoms: _173  and  _174
REMARK   75  A    between atoms: _177  and  _179
REMARK   76  A    between atoms: _179  and  _180
REMARK   77  A    between atoms: _179  and  _182
REMARK   78  A    between atoms: _185  and  _187
REMARK   79  A    between atoms: _187  and  _188
REMARK   80  A    between atoms: _187  and  _190
REMARK   81  A    between atoms: _190  and  _191
REMARK   82  A    between atoms: _194  and  _196
REMARK   83  A    between atoms: _196  and  _197
REMARK   84  A    between atoms: _196  and  _199
REMARK   85  A    between atoms: _199  and  _200
REMARK   86  A    between atoms: _204  and  _205
REMARK   87  A    between atoms: _210  and  _212
REMARK   88  A    between atoms: _212  and  _213
REMARK   89  A    between atoms: _212  and  _215
REMARK   90  A    between atoms: _218  and  _220
REMARK   91  A    between atoms: _220  and  _221
REMARK   92  A    between atoms: _220  and  _223
REMARK   93  A    between atoms: _223  and  _224
REMARK   94  A    between atoms: _229  and  _231
REMARK   95  A    between atoms: _231  and  _232
REMARK   96  A    between atoms: _231  and  _234
REMARK   97  A    between atoms: _234  and  _235
REMARK   98  A    between atoms: _238  and  _240
REMARK   99  A    between atoms: _240  and  _241
REMARK  100  A    between atoms: _240  and  _243
REMARK  101  A    between atoms: _243  and  _244
REMARK  102  A    between atoms: _247  and  _249
REMARK  103  A    between atoms: _249  and  _250
REMARK  104  A    between atoms: _252  and  _254
REMARK  105  A    between atoms: _254  and  _255
REMARK  106  A    between atoms: _254  and  _257
REMARK  107  A    between atoms: _257  and  _258
REMARK  108  A    between atoms: _258  and  _259
REMARK  109  A    between atoms: _259  and  _260
REMARK  110  A    between atoms: _269  and  _271
REMARK  111  A    between atoms: _271  and  _272
REMARK  112  A    between atoms: _271  and  _274
REMARK  113  A    between atoms: _274  and  _275
REMARK  114  A    between atoms: _280  and  _282
REMARK  115  A    between atoms: _282  and  _283
REMARK  116  A    between atoms: _282  and  _285
REMARK  117  A    between atoms: _285  and  _286
REMARK  118  A    between atoms: _286  and  _287
REMARK  119  A    between atoms: _287  and  _288
REMARK  120  A    between atoms: _297  and  _299
REMARK  121  A    between atoms: _299  and  _300
REMARK  122  A    between atoms: _299  and  _302
REMARK  123  A    between atoms: _302  and  _303
REMARK  124  A    between atoms: _306  and  _308
REMARK  125  A    between atoms: _308  and  _309
REMARK  126  A    between atoms: _308  and  _311
REMARK  127  A    between atoms: _311  and  _312
REMARK  128  A    between atoms: _315  and  _317
REMARK  129  A    between atoms: _317  and  _318
REMARK  130  A    between atoms: _317  and  _320
REMARK  131  A    between atoms: _320  and  _321
REMARK  132  A    between atoms: _324  and  _326
REMARK  133  A    between atoms: _326  and  _327
REMARK  134  A    between atoms: _326  and  _329
REMARK  135  A    between atoms: _329  and  _330
REMARK  136  A    between atoms: _333  and  _335
REMARK  137  A    between atoms: _335  and  _336
REMARK  138  A    between atoms: _338  and  _340
REMARK  139  A    between atoms: _340  and  _341
REMARK  140  A    between atoms: _344  and  _346
REMARK  141  A    between atoms: _346  and  _347
REMARK  142  A    between atoms: _346  and  _349
REMARK  143  A    between atoms: _349  and  _350
REMARK  144  A    between atoms: _353  and  _355
REMARK  145  A    between atoms: _355  and  _356
REMARK  146  A    between atoms: _355  and  _358
REMARK  147  A    between atoms: _358  and  _359
REMARK  148  A    between atoms: _362  and  _364
REMARK  149  A    between atoms: _364  and  _365
REMARK  150  A    between atoms: _364  and  _367
REMARK  151  A    between atoms: _367  and  _368
REMARK  152  A    between atoms: _371  and  _373
REMARK  153  A    between atoms: _373  and  _374
REMARK  154  A    between atoms: _373  and  _376
REMARK  155  A    between atoms: _379  and  _381
REMARK  156  A    between atoms: _381  and  _382
REMARK  157  A    between atoms: _381  and  _384
REMARK  158  A    between atoms: _384  and  _385
REMARK  159  A    between atoms: _388  and  _390
REMARK  160  A    between atoms: _390  and  _391
REMARK  161  A    between atoms: _390  and  _393
REMARK  162  A    between atoms: _393  and  _394
REMARK  163  A    between atoms: _394  and  _395
REMARK  164  A    between atoms: _395  and  _396
REMARK  165  A    between atoms: _396  and  _397
REMARK  166  A    between atoms: _401  and  _403
REMARK  167  A    between atoms: _403  and  _404
REMARK  168  A    between atoms: _403  and  _406
REMARK  169  A    between atoms: _406  and  _407
REMARK  170  A    between atoms: _407  and  _408
REMARK  171  A    between atoms: _410  and  _412
REMARK  172  A    between atoms: _412  and  _413
REMARK  173  A    between atoms: _412  and  _415
REMARK  174  A    between atoms: _415  and  _416
REMARK  175  A    between atoms: _419  and  _421
REMARK  176  A    between atoms: _421  and  _422
REMARK  177  A    between atoms: _424  and  _426
REMARK  178  A    between atoms: _426  and  _427
REMARK  179  A    between atoms: _429  and  _431
REMARK  180  A    between atoms: _431  and  _432
REMARK  181  A    between atoms: _431  and  _434
REMARK  182  A    between atoms: _434  and  _435
REMARK  183  A    between atoms: _438  and  _440
REMARK  184  A    between atoms: _440  and  _441
REMARK  185  A    between atoms: _443  and  _445
REMARK  186  A    between atoms: _445  and  _446
REMARK  187  A    between atoms: _448  and  _450
REMARK  188  A    between atoms: _450  and  _451
REMARK  189  A    between atoms: _450  and  _453
REMARK  190  A    between atoms: _453  and  _454
REMARK  191  A    between atoms: _457  and  _459
REMARK  192  A    between atoms: _459  and  _460
REMARK  193  A    between atoms: _459  and  _462
REMARK  194  A    between atoms: _465  and  _467
REMARK  195  A    between atoms: _467  and  _468
REMARK  196  A    between atoms: _467  and  _470
REMARK  197  A    between atoms: _470  and  _471
REMARK  198  A    between atoms: _474  and  _476
REMARK  199  A    between atoms: _476  and  _477
REMARK  200  A    between atoms: _476  and  _479
REMARK  201  A    between atoms: _479  and  _480
REMARK  202  A    between atoms: _484  and  _485
REMARK  203  A    between atoms: _490  and  _492
REMARK  204  A    between atoms: _492  and  _493
REMARK  205  A    between atoms: _492  and  _495
REMARK  206  A    between atoms: _498  and  _500
REMARK  207  A    between atoms: _500  and  _501
REMARK  208  A    between atoms: _500  and  _503
REMARK  209  A    between atoms: _503  and  _504
REMARK  210  A    between atoms: _509  and  _511
REMARK  211  A    between atoms: _511  and  _512
REMARK  212  A    between atoms: _511  and  _514
REMARK  213  A    between atoms: _514  and  _515
REMARK  214  A    between atoms: _518  and  _520
REMARK  215  A    between atoms: _520  and  _521
REMARK  216  A    between atoms: _520  and  _523
REMARK  217  A    between atoms: _523  and  _524
REMARK  218  A    between atoms: _527  and  _529
REMARK  219  A    between atoms: _529  and  _530
REMARK  220  A    between atoms: _532  and  _534
REMARK  221  A    between atoms: _534  and  _535
REMARK  222  A    between atoms: _534  and  _537
REMARK  223  A    between atoms: _537  and  _538
REMARK  224  A    between atoms: _538  and  _539
REMARK  225  A    between atoms: _539  and  _540
REMARK  226  A    between atoms: _549  and  _551
REMARK  227  A    between atoms: _551  and  _552
REMARK  228  A    between atoms: _551  and  _554
REMARK  229  A    between atoms: _554  and  _555
REMARK                            x       y       z     vdW  Elec       q    Type
REMARK                         _______ _______ _______ _____ _____    ______ ____
ROOT
ATOM      1  O   HOH     1      21.689  35.048  19.199  0.00  0.00    +0.000 OA
ENDROOT
TORSDOF 0
REMARK  Name = ../refined-set-2016/2avo/2avo_pocket.pdb
REMARK  229 active torsions:
REMARK  status: ('A' for Active; 'I' for Inactive)
REMARK    1  A    between atoms: _1  and  _3
REMARK    2  A    between atoms: _3  and  _4
REMARK    3  A    between atoms: _3  and  _6
REMARK    4  A    between atoms: _6  and  _7
REMARK    5  A    between atoms: _7  and  _8
REMARK    6  A    between atoms: _8  and  _9
REMARK    7  A    between atoms: _18  and  _20
REMARK    8  A    between atoms: _20  and  _21
REMARK    9  A    between atoms: _20  and  _23
REMARK   10  A    between atoms: _23  and  _24
REMARK   11  A    between atoms: _27  and  _29
REMARK   12  A    between atoms: _29  and  _30
REMARK   13  A    between atoms: _29  and  _32
REMARK   14  A    between atoms: _32  and  _33
REMARK   15  A    between atoms: _36  and  _38
REMARK   16  A    between atoms: _38  and  _39
REMARK   17  A    between atoms: _38  and  _41
REMARK   18  A    between atoms: _41  and  _42
REMARK   19  A    between atoms: _45  and  _47
REMARK   20  A    between atoms: _47  and  _48
REMARK   21  A    between atoms: _47  and  _50
REMARK   22  A    between atoms: _50  and  _51
REMARK   23  A    between atoms: _54  and  _56
REMARK   24  A    between atoms: _56  and  _57
REMARK   25  A    between atoms: _56  and  _59
REMARK   26  A    between atoms: _59  and  _60
REMARK   27  A    between atoms: _63  and  _65
REMARK   28  A    between atoms: _65  and  _66
REMARK   29  A    between atoms: _68  and  _70
REMARK   30  A    between atoms: _70  and  _71
REMARK   31  A    between atoms: _74  and  _76
REMARK   32  A    between atoms: _76  and  _77
REMARK   33  A    between atoms: _76  and  _79
REMARK   34  A    between atoms: _79  and  _80
REMARK   35  A    between atoms: _83  and  _85
REMARK   36  A    between atoms: _85  and  _86
REMARK   37  A    between atoms: _85  and  _88
REMARK   38  A    between atoms: _88  and  _89
REMARK   39  A    between atoms: _92  and  _94
REMARK   40  A    between atoms: _94  and  _95
REMARK   41  A    between atoms: _94  and  _97
REMARK   42  A    between atoms: _97  and  _98
REMARK   43  A    between atoms: _101  and  _103
REMARK   44  A    between atoms: _103  and  _104
REMARK   45  A    between atoms: _103  and  _106
REMARK   46  A    between atoms: _109  and  _111
REMARK   47  A    between atoms: _111  and  _112
REMARK   48  A    between atoms: _111  and  _114
REMARK   49  A    between atoms: _114  and  _115
REMARK   50  A    between atoms: _115  and  _116
REMARK   51  A    between atoms: _118  and  _120
REMARK   52  A    between atoms: _120  and  _121
REMARK   53  A    between atoms: _120  and  _123
REMARK   54  A    between atoms: _123  and  _124
REMARK   55  A    between atoms: _127  and  _129
REMARK   56  A    between atoms: _129  and  _130
REMARK   57  A    between atoms: _132  and  _134
REMARK   58  A    between atoms: _134  and  _135
REMARK   59  A    between atoms: _137  and  _139
REMARK   60  A    between atoms: _139  and  _140
REMARK   61  A    between atoms: _139  and  _142
REMARK   62  A    between atoms: _142  and  _143
REMARK   63  A    between atoms: _146  and  _148
REMARK   64  A    between atoms: _148  and  _149
REMARK   65  A    between atoms: _151  and  _153
REMARK   66  A    between atoms: _153  and  _154
REMARK   67  A    between atoms: _156  and  _158
REMARK   68  A    between atoms: _158  and  _159
REMARK   69  A    between atoms: _158  and  _161
REMARK   70  A    between atoms: _161  and  _162
REMARK   71  A    between atoms: _168  and  _170
REMARK   72  A    between atoms: _170  and  _171
REMARK   73  A    between atoms: _170  and  _173
REMARK   74  A    between atoms: _173  and  _174
REMARK   75  A    between atoms: _177  and  _179
REMARK   76  A    between atoms: _179  and  _180
REMARK   77  A    between atoms: _179  and  _182
REMARK   78  A    between atoms: _185  and  _187
REMARK   79  A    between atoms: _187  and  _188
REMARK   80  A    between atoms: _187  and  _190
REMARK   81  A    between atoms: _190  and  _191
REMARK   82  A    between atoms: _194  and  _196
REMARK   83  A    between atoms: _196  and  _197
REMARK   84  A    between atoms: _196  and  _199
REMARK   85  A    between atoms: _199  and  _200
REMARK   86  A    between atoms: _204  and  _205
REMARK   87  A    between atoms: _210  and  _212
REMARK   88  A    between atoms: _212  and  _213
REMARK   89  A    between atoms: _212  and  _215
REMARK   90  A    between atoms: _218  and  _220
REMARK   91  A    between atoms: _220  and  _221
REMARK   92  A    between atoms: _220  and  _223
REMARK   93  A    between atoms: _223  and  _224
REMARK   94  A    between atoms: _229  and  _231
REMARK   95  A    between atoms: _231  and  _232
REMARK   96  A    between atoms: _231  and  _234
REMARK   97  A    between atoms: _234  and  _235
REMARK   98  A    between atoms: _238  and  _240
REMARK   99  A    between atoms: _240  and  _241
REMARK  100  A    between atoms: _240  and  _243
REMARK  101  A    between atoms: _243  and  _244
REMARK  102  A    between atoms: _247  and  _249
REMARK  103  A    between atoms: _249  and  _250
REMARK  104  A    between atoms: _252  and  _254
REMARK  105  A    between atoms: _254  and  _255
REMARK  106  A    between atoms: _254  and  _257
REMARK  107  A    between atoms: _257  and  _258
REMARK  108  A    between atoms: _258  and  _259
REMARK  109  A    between atoms: _259  and  _260
REMARK  110  A    between atoms: _269  and  _271
REMARK  111  A    between atoms: _271  and  _272
REMARK  112  A    between atoms: _271  and  _274
REMARK  113  A    between atoms: _274  and  _275
REMARK  114  A    between atoms: _280  and  _282
REMARK  115  A    between atoms: _282  and  _283
REMARK  116  A    between atoms: _282  and  _285
REMARK  117  A    between atoms: _285  and  _286
REMARK  118  A    between atoms: _286  and  _287
REMARK  119  A    between atoms: _287  and  _288
REMARK  120  A    between atoms: _297  and  _299
REMARK  121  A    between atoms: _299  and  _300
REMARK  122  A    between atoms: _299  and  _302
REMARK  123  A    between atoms: _302  and  _303
REMARK  124  A    between atoms: _306  and  _308
REMARK  125  A    between atoms: _308  and  _309
REMARK  126  A    between atoms: _308  and  _311
REMARK  127  A    between atoms: _311  and  _312
REMARK  128  A    between atoms: _315  and  _317
REMARK  129  A    between atoms: _317  and  _318
REMARK  130  A    between atoms: _317  and  _320
REMARK  131  A    between atoms: _320  and  _321
REMARK  132  A    between atoms: _324  and  _326
REMARK  133  A    between atoms: _326  and  _327
REMARK  134  A    between atoms: _326  and  _329
REMARK  135  A    between atoms: _329  and  _330
REMARK  136  A    between atoms: _333  and  _335
REMARK  137  A    between atoms: _335  and  _336
REMARK  138  A    between atoms: _338  and  _340
REMARK  139  A    between atoms: _340  and  _341
REMARK  140  A    between atoms: _344  and  _346
REMARK  141  A    between atoms: _346  and  _347
REMARK  142  A    between atoms: _346  and  _349
REMARK  143  A    between atoms: _349  and  _350
REMARK  144  A    between atoms: _353  and  _355
REMARK  145  A    between atoms: _355  and  _356
REMARK  146  A    between atoms: _355  and  _358
REMARK  147  A    between atoms: _358  and  _359
REMARK  148  A    between atoms: _362  and  _364
REMARK  149  A    between atoms: _364  and  _365
REMARK  150  A    between atoms: _364  and  _367
REMARK  151  A    between atoms: _367  and  _368
REMARK  152  A    between atoms: _371  and  _373
REMARK  153  A    between atoms: _373  and  _374
REMARK  154  A    between atoms: _373  and  _376
REMARK  155  A    between atoms: _379  and  _381
REMARK  156  A    between atoms: _381  and  _382
REMARK  157  A    between atoms: _381  and  _384
REMARK  158  A    between atoms: _384  and  _385
REMARK  159  A    between atoms: _388  and  _390
REMARK  160  A    between atoms: _390  and  _391
REMARK  161  A    between atoms: _390  and  _393
REMARK  162  A    between atoms: _393  and  _394
REMARK  163  A    between atoms: _394  and  _395
REMARK  164  A    between atoms: _395  and  _396
REMARK  165  A    between atoms: _396  and  _397
REMARK  166  A    between atoms: _401  and  _403
REMARK  167  A    between atoms: _403  and  _404
REMARK  168  A    between atoms: _403  and  _406
REMARK  169  A    between atoms: _406  and  _407
REMARK  170  A    between atoms: _407  and  _408
REMARK  171  A    between atoms: _410  and  _412
REMARK  172  A    between atoms: _412  and  _413
REMARK  173  A    between atoms: _412  and  _415
REMARK  174  A    between atoms: _415  and  _416
REMARK  175  A    between atoms: _419  and  _421
REMARK  176  A    between atoms: _421  and  _422
REMARK  177  A    between atoms: _424  and  _426
REMARK  178  A    between atoms: _426  and  _427
REMARK  179  A    between atoms: _429  and  _431
REMARK  180  A    between atoms: _431  and  _432
REMARK  181  A    between atoms: _431  and  _434
REMARK  182  A    between atoms: _434  and  _435
REMARK  183  A    between atoms: _438  and  _440
REMARK  184  A    between atoms: _440  and  _441
REMARK  185  A    between atoms: _443  and  _445
REMARK  186  A    between atoms: _445  and  _446
REMARK  187  A    between atoms: _448  and  _450
REMARK  188  A    between atoms: _450  and  _451
REMARK  189  A    between atoms: _450  and  _453
REMARK  190  A    between atoms: _453  and  _454
REMARK  191  A    between atoms: _457  and  _459
REMARK  192  A    between atoms: _459  and  _460
REMARK  193  A    between atoms: _459  and  _462
REMARK  194  A    between atoms: _465  and  _467
REMARK  195  A    between atoms: _467  and  _468
REMARK  196  A    between atoms: _467  and  _470
REMARK  197  A    between atoms: _470  and  _471
REMARK  198  A    between atoms: _474  and  _476
REMARK  199  A    between atoms: _476  and  _477
REMARK  200  A    between atoms: _476  and  _479
REMARK  201  A    between atoms: _479  and  _480
REMARK  202  A    between atoms: _484  and  _485
REMARK  203  A    between atoms: _490  and  _492
REMARK  204  A    between atoms: _492  and  _493
REMARK  205  A    between atoms: _492  and  _495
REMARK  206  A    between atoms: _498  and  _500
REMARK  207  A    between atoms: _500  and  _501
REMARK  208  A    between atoms: _500  and  _503
REMARK  209  A    between atoms: _503  and  _504
REMARK  210  A    between atoms: _509  and  _511
REMARK  211  A    between atoms: _511  and  _512
REMARK  212  A    between atoms: _511  and  _514
REMARK  213  A    between atoms: _514  and  _515
REMARK  214  A    between atoms: _518  and  _520
REMARK  215  A    between atoms: _520  and  _521
REMARK  216  A    between atoms: _520  and  _523
REMARK  217  A    between atoms: _523  and  _524
REMARK  218  A    between atoms: _527  and  _529
REMARK  219  A    between atoms: _529  and  _530
REMARK  220  A    between atoms: _532  and  _534
REMARK  221  A    between atoms: _534  and  _535
REMARK  222  A    between atoms: _534  and  _537
REMARK  223  A    between atoms: _537  and  _538
REMARK  224  A    between atoms: _538  and  _539
REMARK  225  A    between atoms: _539  and  _540
REMARK  226  A    between atoms: _549  and  _551
REMARK  227  A    between atoms: _551  and  _552
REMARK  228  A    between atoms: _551  and  _554
REMARK  229  A    between atoms: _554  and  _555
REMARK                            x       y       z     vdW  Elec       q    Type
REMARK                         _______ _______ _______ _____ _____    ______ ____
ROOT
ATOM      1  O   HOH     1      24.024  25.818   6.162  0.00  0.00    +0.000 OA
ENDROOT
TORSDOF 0
REMARK  Name = ../refined-set-2016/2avo/2avo_pocket.pdb
REMARK  229 active torsions:
REMARK  status: ('A' for Active; 'I' for Inactive)
REMARK    1  A    between atoms: _1  and  _3
REMARK    2  A    between atoms: _3  and  _4
REMARK    3  A    between atoms: _3  and  _6
REMARK    4  A    between atoms: _6  and  _7
REMARK    5  A    between atoms: _7  and  _8
REMARK    6  A    between atoms: _8  and  _9
REMARK    7  A    between atoms: _18  and  _20
REMARK    8  A    between atoms: _20  and  _21
REMARK    9  A    between atoms: _20  and  _23
REMARK   10  A    between atoms: _23  and  _24
REMARK   11  A    between atoms: _27  and  _29
REMARK   12  A    between atoms: _29  and  _30
REMARK   13  A    between atoms: _29  and  _32
REMARK   14  A    between atoms: _32  and  _33
REMARK   15  A    between atoms: _36  and  _38
REMARK   16  A    between atoms: _38  and  _39
REMARK   17  A    between atoms: _38  and  _41
REMARK   18  A    between atoms: _41  and  _42
REMARK   19  A    between atoms: _45  and  _47
REMARK   20  A    between atoms: _47  and  _48
REMARK   21  A    between atoms: _47  and  _50
REMARK   22  A    between atoms: _50  and  _51
REMARK   23  A    between atoms: _54  and  _56
REMARK   24  A    between atoms: _56  and  _57
REMARK   25  A    between atoms: _56  and  _59
REMARK   26  A    between atoms: _59  and  _60
REMARK   27  A    between atoms: _63  and  _65
REMARK   28  A    between atoms: _65  and  _66
REMARK   29  A    between atoms: _68  and  _70
REMARK   30  A    between atoms: _70  and  _71
REMARK   31  A    between atoms: _74  and  _76
REMARK   32  A    between atoms: _76  and  _77
REMARK   33  A    between atoms: _76  and  _79
REMARK   34  A    between atoms: _79  and  _80
REMARK   35  A    between atoms: _83  and  _85
REMARK   36  A    between atoms: _85  and  _86
REMARK   37  A    between atoms: _85  and  _88
REMARK   38  A    between atoms: _88  and  _89
REMARK   39  A    between atoms: _92  and  _94
REMARK   40  A    between atoms: _94  and  _95
REMARK   41  A    between atoms: _94  and  _97
REMARK   42  A    between atoms: _97  and  _98
REMARK   43  A    between atoms: _101  and  _103
REMARK   44  A    between atoms: _103  and  _104
REMARK   45  A    between atoms: _103  and  _106
REMARK   46  A    between atoms: _109  and  _111
REMARK   47  A    between atoms: _111  and  _112
REMARK   48  A    between atoms: _111  and  _114
REMARK   49  A    between atoms: _114  and  _115
REMARK   50  A    between atoms: _115  and  _116
REMARK   51  A    between atoms: _118  and  _120
REMARK   52  A    between atoms: _120  and  _121
REMARK   53  A    between atoms: _120  and  _123
REMARK   54  A    between atoms: _123  and  _124
REMARK   55  A    between atoms: _127  and  _129
REMARK   56  A    between atoms: _129  and  _130
REMARK   57  A    between atoms: _132  and  _134
REMARK   58  A    between atoms: _134  and  _135
REMARK   59  A    between atoms: _137  and  _139
REMARK   60  A    between atoms: _139  and  _140
REMARK   61  A    between atoms: _139  and  _142
REMARK   62  A    between atoms: _142  and  _143
REMARK   63  A    between atoms: _146  and  _148
REMARK   64  A    between atoms: _148  and  _149
REMARK   65  A    between atoms: _151  and  _153
REMARK   66  A    between atoms: _153  and  _154
REMARK   67  A    between atoms: _156  and  _158
REMARK   68  A    between atoms: _158  and  _159
REMARK   69  A    between atoms: _158  and  _161
REMARK   70  A    between atoms: _161  and  _162
REMARK   71  A    between atoms: _168  and  _170
REMARK   72  A    between atoms: _170  and  _171
REMARK   73  A    between atoms: _170  and  _173
REMARK   74  A    between atoms: _173  and  _174
REMARK   75  A    between atoms: _177  and  _179
REMARK   76  A    between atoms: _179  and  _180
REMARK   77  A    between atoms: _179  and  _182
REMARK   78  A    between atoms: _185  and  _187
REMARK   79  A    between atoms: _187  and  _188
REMARK   80  A    between atoms: _187  and  _190
REMARK   81  A    between atoms: _190  and  _191
REMARK   82  A    between atoms: _194  and  _196
REMARK   83  A    between atoms: _196  and  _197
REMARK   84  A    between atoms: _196  and  _199
REMARK   85  A    between atoms: _199  and  _200
REMARK   86  A    between atoms: _204  and  _205
REMARK   87  A    between atoms: _210  and  _212
REMARK   88  A    between atoms: _212  and  _213
REMARK   89  A    between atoms: _212  and  _215
REMARK   90  A    between atoms: _218  and  _220
REMARK   91  A    between atoms: _220  and  _221
REMARK   92  A    between atoms: _220  and  _223
REMARK   93  A    between atoms: _223  and  _224
REMARK   94  A    between atoms: _229  and  _231
REMARK   95  A    between atoms: _231  and  _232
REMARK   96  A    between atoms: _231  and  _234
REMARK   97  A    between atoms: _234  and  _235
REMARK   98  A    between atoms: _238  and  _240
REMARK   99  A    between atoms: _240  and  _241
REMARK  100  A    between atoms: _240  and  _243
REMARK  101  A    between atoms: _243  and  _244
REMARK  102  A    between atoms: _247  and  _249
REMARK  103  A    between atoms: _249  and  _250
REMARK  104  A    between atoms: _252  and  _254
REMARK  105  A    between atoms: _254  and  _255
REMARK  106  A    between atoms: _254  and  _257
REMARK  107  A    between atoms: _257  and  _258
REMARK  108  A    between atoms: _258  and  _259
REMARK  109  A    between atoms: _259  and  _260
REMARK  110  A    between atoms: _269  and  _271
REMARK  111  A    between atoms: _271  and  _272
REMARK  112  A    between atoms: _271  and  _274
REMARK  113  A    between atoms: _274  and  _275
REMARK  114  A    between atoms: _280  and  _282
REMARK  115  A    between atoms: _282  and  _283
REMARK  116  A    between atoms: _282  and  _285
REMARK  117  A    between atoms: _285  and  _286
REMARK  118  A    between atoms: _286  and  _287
REMARK  119  A    between atoms: _287  and  _288
REMARK  120  A    between atoms: _297  and  _299
REMARK  121  A    between atoms: _299  and  _300
REMARK  122  A    between atoms: _299  and  _302
REMARK  123  A    between atoms: _302  and  _303
REMARK  124  A    between atoms: _306  and  _308
REMARK  125  A    between atoms: _308  and  _309
REMARK  126  A    between atoms: _308  and  _311
REMARK  127  A    between atoms: _311  and  _312
REMARK  128  A    between atoms: _315  and  _317
REMARK  129  A    between atoms: _317  and  _318
REMARK  130  A    between atoms: _317  and  _320
REMARK  131  A    between atoms: _320  and  _321
REMARK  132  A    between atoms: _324  and  _326
REMARK  133  A    between atoms: _326  and  _327
REMARK  134  A    between atoms: _326  and  _329
REMARK  135  A    between atoms: _329  and  _330
REMARK  136  A    between atoms: _333  and  _335
REMARK  137  A    between atoms: _335  and  _336
REMARK  138  A    between atoms: _338  and  _340
REMARK  139  A    between atoms: _340  and  _341
REMARK  140  A    between atoms: _344  and  _346
REMARK  141  A    between atoms: _346  and  _347
REMARK  142  A    between atoms: _346  and  _349
REMARK  143  A    between atoms: _349  and  _350
REMARK  144  A    between atoms: _353  and  _355
REMARK  145  A    between atoms: _355  and  _356
REMARK  146  A    between atoms: _355  and  _358
REMARK  147  A    between atoms: _358  and  _359
REMARK  148  A    between atoms: _362  and  _364
REMARK  149  A    between atoms: _364  and  _365
REMARK  150  A    between atoms: _364  and  _367
REMARK  151  A    between atoms: _367  and  _368
REMARK  152  A    between atoms: _371  and  _373
REMARK  153  A    between atoms: _373  and  _374
REMARK  154  A    between atoms: _373  and  _376
REMARK  155  A    between atoms: _379  and  _381
REMARK  156  A    between atoms: _381  and  _382
REMARK  157  A    between atoms: _381  and  _384
REMARK  158  A    between atoms: _384  and  _385
REMARK  159  A    between atoms: _388  and  _390
REMARK  160  A    between atoms: _390  and  _391
REMARK  161  A    between atoms: _390  and  _393
REMARK  162  A    between atoms: _393  and  _394
REMARK  163  A    between atoms: _394  and  _395
REMARK  164  A    between atoms: _395  and  _396
REMARK  165  A    between atoms: _396  and  _397
REMARK  166  A    between atoms: _401  and  _403
REMARK  167  A    between atoms: _403  and  _404
REMARK  168  A    between atoms: _403  and  _406
REMARK  169  A    between atoms: _406  and  _407
REMARK  170  A    between atoms: _407  and  _408
REMARK  171  A    between atoms: _410  and  _412
REMARK  172  A    between atoms: _412  and  _413
REMARK  173  A    between atoms: _412  and  _415
REMARK  174  A    between atoms: _415  and  _416
REMARK  175  A    between atoms: _419  and  _421
REMARK  176  A    between atoms: _421  and  _422
REMARK  177  A    between atoms: _424  and  _426
REMARK  178  A    between atoms: _426  and  _427
REMARK  179  A    between atoms: _429  and  _431
REMARK  180  A    between atoms: _431  and  _432
REMARK  181  A    between atoms: _431  and  _434
REMARK  182  A    between atoms: _434  and  _435
REMARK  183  A    between atoms: _438  and  _440
REMARK  184  A    between atoms: _440  and  _441
REMARK  185  A    between atoms: _443  and  _445
REMARK  186  A    between atoms: _445  and  _446
REMARK  187  A    between atoms: _448  and  _450
REMARK  188  A    between atoms: _450  and  _451
REMARK  189  A    between atoms: _450  and  _453
REMARK  190  A    between atoms: _453  and  _454
REMARK  191  A    between atoms: _457  and  _459
REMARK  192  A    between atoms: _459  and  _460
REMARK  193  A    between atoms: _459  and  _462
REMARK  194  A    between atoms: _465  and  _467
REMARK  195  A    between atoms: _467  and  _468
REMARK  196  A    between atoms: _467  and  _470
REMARK  197  A    between atoms: _470  and  _471
REMARK  198  A    between atoms: _474  and  _476
REMARK  199  A    between atoms: _476  and  _477
REMARK  200  A    between atoms: _476  and  _479
REMARK  201  A    between atoms: _479  and  _480
REMARK  202  A    between atoms: _484  and  _485
REMARK  203  A    between atoms: _490  and  _492
REMARK  204  A    between atoms: _492  and  _493
REMARK  205  A    between atoms: _492  and  _495
REMARK  206  A    between atoms: _498  and  _500
REMARK  207  A    between atoms: _500  and  _501
REMARK  208  A    between atoms: _500  and  _503
REMARK  209  A    between atoms: _503  and  _504
REMARK  210  A    between atoms: _509  and  _511
REMARK  211  A    between atoms: _511  and  _512
REMARK  212  A    between atoms: _511  and  _514
REMARK  213  A    between atoms: _514  and  _515
REMARK  214  A    between atoms: _518  and  _520
REMARK  215  A    between atoms: _520  and  _521
REMARK  216  A    between atoms: _520  and  _523
REMARK  217  A    between atoms: _523  and  _524
REMARK  218  A    between atoms: _527  and  _529
REMARK  219  A    between atoms: _529  and  _530
REMARK  220  A    between atoms: _532  and  _534
REMARK  221  A    between atoms: _534  and  _535
REMARK  222  A    between atoms: _534  and  _537
REMARK  223  A    between atoms: _537  and  _538
REMARK  224  A    between atoms: _538  and  _539
REMARK  225  A    between atoms: _539  and  _540
REMARK  226  A    between atoms: _549  and  _551
REMARK  227  A    between atoms: _551  and  _552
REMARK  228  A    between atoms: _551  and  _554
REMARK  229  A    between atoms: _554  and  _555
REMARK                            x       y       z     vdW  Elec       q    Type
REMARK                         _______ _______ _______ _____ _____    ______ ____
ROOT
ATOM      1  O   UNL     1      15.551  33.464   6.638  0.00  0.00    +0.000 OA
ATOM      2  O   UNL     1      16.111  32.877   5.106  0.00  0.00    +0.000 OA
ENDROOT
TORSDOF 0
REMARK  Name = ../refined-set-2016/2avo/2avo_pocket.pdb
REMARK  229 active torsions:
REMARK  status: ('A' for Active; 'I' for Inactive)
REMARK    1  A    between atoms: _1  and  _3
REMARK    2  A    between atoms: _3  and  _4
REMARK    3  A    between atoms: _3  and  _6
REMARK    4  A    between atoms: _6  and  _7
REMARK    5  A    between atoms: _7  and  _8
REMARK    6  A    between atoms: _8  and  _9
REMARK    7  A    between atoms: _18  and  _20
REMARK    8  A    between atoms: _20  and  _21
REMARK    9  A    between atoms: _20  and  _23
REMARK   10  A    between atoms: _23  and  _24
REMARK   11  A    between atoms: _27  and  _29
REMARK   12  A    between atoms: _29  and  _30
REMARK   13  A    between atoms: _29  and  _32
REMARK   14  A    between atoms: _32  and  _33
REMARK   15  A    between atoms: _36  and  _38
REMARK   16  A    between atoms: _38  and  _39
REMARK   17  A    between atoms: _38  and  _41
REMARK   18  A    between atoms: _41  and  _42
REMARK   19  A    between atoms: _45  and  _47
REMARK   20  A    between atoms: _47  and  _48
REMARK   21  A    between atoms: _47  and  _50
REMARK   22  A    between atoms: _50  and  _51
REMARK   23  A    between atoms: _54  and  _56
REMARK   24  A    between atoms: _56  and  _57
REMARK   25  A    between atoms: _56  and  _59
REMARK   26  A    between atoms: _59  and  _60
REMARK   27  A    between atoms: _63  and  _65
REMARK   28  A    between atoms: _65  and  _66
REMARK   29  A    between atoms: _68  and  _70
REMARK   30  A    between atoms: _70  and  _71
REMARK   31  A    between atoms: _74  and  _76
REMARK   32  A    between atoms: _76  and  _77
REMARK   33  A    between atoms: _76  and  _79
REMARK   34  A    between atoms: _79  and  _80
REMARK   35  A    between atoms: _83  and  _85
REMARK   36  A    between atoms: _85  and  _86
REMARK   37  A    between atoms: _85  and  _88
REMARK   38  A    between atoms: _88  and  _89
REMARK   39  A    between atoms: _92  and  _94
REMARK   40  A    between atoms: _94  and  _95
REMARK   41  A    between atoms: _94  and  _97
REMARK   42  A    between atoms: _97  and  _98
REMARK   43  A    between atoms: _101  and  _103
REMARK   44  A    between atoms: _103  and  _104
REMARK   45  A    between atoms: _103  and  _106
REMARK   46  A    between atoms: _109  and  _111
REMARK   47  A    between atoms: _111  and  _112
REMARK   48  A    between atoms: _111  and  _114
REMARK   49  A    between atoms: _114  and  _115
REMARK   50  A    between atoms: _115  and  _116
REMARK   51  A    between atoms: _118  and  _120
REMARK   52  A    between atoms: _120  and  _121
REMARK   53  A    between atoms: _120  and  _123
REMARK   54  A    between atoms: _123  and  _124
REMARK   55  A    between atoms: _127  and  _129
REMARK   56  A    between atoms: _129  and  _130
REMARK   57  A    between atoms: _132  and  _134
REMARK   58  A    between atoms: _134  and  _135
REMARK   59  A    between atoms: _137  and  _139
REMARK   60  A    between atoms: _139  and  _140
REMARK   61  A    between atoms: _139  and  _142
REMARK   62  A    between atoms: _142  and  _143
REMARK   63  A    between atoms: _146  and  _148
REMARK   64  A    between atoms: _148  and  _149
REMARK   65  A    between atoms: _151  and  _153
REMARK   66  A    between atoms: _153  and  _154
REMARK   67  A    between atoms: _156  and  _158
REMARK   68  A    between atoms: _158  and  _159
REMARK   69  A    between atoms: _158  and  _161
REMARK   70  A    between atoms: _161  and  _162
REMARK   71  A    between atoms: _168  and  _170
REMARK   72  A    between atoms: _170  and  _171
REMARK   73  A    between atoms: _170  and  _173
REMARK   74  A    between atoms: _173  and  _174
REMARK   75  A    between atoms: _177  and  _179
REMARK   76  A    between atoms: _179  and  _180
REMARK   77  A    between atoms: _179  and  _182
REMARK   78  A    between atoms: _185  and  _187
REMARK   79  A    between atoms: _187  and  _188
REMARK   80  A    between atoms: _187  and  _190
REMARK   81  A    between atoms: _190  and  _191
REMARK   82  A    between atoms: _194  and  _196
REMARK   83  A    between atoms: _196  and  _197
REMARK   84  A    between atoms: _196  and  _199
REMARK   85  A    between atoms: _199  and  _200
REMARK   86  A    between atoms: _204  and  _205
REMARK   87  A    between atoms: _210  and  _212
REMARK   88  A    between atoms: _212  and  _213
REMARK   89  A    between atoms: _212  and  _215
REMARK   90  A    between atoms: _218  and  _220
REMARK   91  A    between atoms: _220  and  _221
REMARK   92  A    between atoms: _220  and  _223
REMARK   93  A    between atoms: _223  and  _224
REMARK   94  A    between atoms: _229  and  _231
REMARK   95  A    between atoms: _231  and  _232
REMARK   96  A    between atoms: _231  and  _234
REMARK   97  A    between atoms: _234  and  _235
REMARK   98  A    between atoms: _238  and  _240
REMARK   99  A    between atoms: _240  and  _241
REMARK  100  A    between atoms: _240  and  _243
REMARK  101  A    between atoms: _243  and  _244
REMARK  102  A    between atoms: _247  and  _249
REMARK  103  A    between atoms: _249  and  _250
REMARK  104  A    between atoms: _252  and  _254
REMARK  105  A    between atoms: _254  and  _255
REMARK  106  A    between atoms: _254  and  _257
REMARK  107  A    between atoms: _257  and  _258
REMARK  108  A    between atoms: _258  and  _259
REMARK  109  A    between atoms: _259  and  _260
REMARK  110  A    between atoms: _269  and  _271
REMARK  111  A    between atoms: _271  and  _272
REMARK  112  A    between atoms: _271  and  _274
REMARK  113  A    between atoms: _274  and  _275
REMARK  114  A    between atoms: _280  and  _282
REMARK  115  A    between atoms: _282  and  _283
REMARK  116  A    between atoms: _282  and  _285
REMARK  117  A    between atoms: _285  and  _286
REMARK  118  A    between atoms: _286  and  _287
REMARK  119  A    between atoms: _287  and  _288
REMARK  120  A    between atoms: _297  and  _299
REMARK  121  A    between atoms: _299  and  _300
REMARK  122  A    between atoms: _299  and  _302
REMARK  123  A    between atoms: _302  and  _303
REMARK  124  A    between atoms: _306  and  _308
REMARK  125  A    between atoms: _308  and  _309
REMARK  126  A    between atoms: _308  and  _311
REMARK  127  A    between atoms: _311  and  _312
REMARK  128  A    between atoms: _315  and  _317
REMARK  129  A    between atoms: _317  and  _318
REMARK  130  A    between atoms: _317  and  _320
REMARK  131  A    between atoms: _320  and  _321
REMARK  132  A    between atoms: _324  and  _326
REMARK  133  A    between atoms: _326  and  _327
REMARK  134  A    between atoms: _326  and  _329
REMARK  135  A    between atoms: _329  and  _330
REMARK  136  A    between atoms: _333  and  _335
REMARK  137  A    between atoms: _335  and  _336
REMARK  138  A    between atoms: _338  and  _340
REMARK  139  A    between atoms: _340  and  _341
REMARK  140  A    between atoms: _344  and  _346
REMARK  141  A    between atoms: _346  and  _347
REMARK  142  A    between atoms: _346  and  _349
REMARK  143  A    between atoms: _349  and  _350
REMARK  144  A    between atoms: _353  and  _355
REMARK  145  A    between atoms: _355  and  _356
REMARK  146  A    between atoms: _355  and  _358
REMARK  147  A    between atoms: _358  and  _359
REMARK  148  A    between atoms: _362  and  _364
REMARK  149  A    between atoms: _364  and  _365
REMARK  150  A    between atoms: _364  and  _367
REMARK  151  A    between atoms: _367  and  _368
REMARK  152  A    between atoms: _371  and  _373
REMARK  153  A    between atoms: _373  and  _374
REMARK  154  A    between atoms: _373  and  _376
REMARK  155  A    between atoms: _379  and  _381
REMARK  156  A    between atoms: _381  and  _382
REMARK  157  A    between atoms: _381  and  _384
REMARK  158  A    between atoms: _384  and  _385
REMARK  159  A    between atoms: _388  and  _390
REMARK  160  A    between atoms: _390  and  _391
REMARK  161  A    between atoms: _390  and  _393
REMARK  162  A    between atoms: _393  and  _394
REMARK  163  A    between atoms: _394  and  _395
REMARK  164  A    between atoms: _395  and  _396
REMARK  165  A    between atoms: _396  and  _397
REMARK  166  A    between atoms: _401  and  _403
REMARK  167  A    between atoms: _403  and  _404
REMARK  168  A    between atoms: _403  and  _406
REMARK  169  A    between atoms: _406  and  _407
REMARK  170  A    between atoms: _407  and  _408
REMARK  171  A    between atoms: _410  and  _412
REMARK  172  A    between atoms: _412  and  _413
REMARK  173  A    between atoms: _412  and  _415
REMARK  174  A    between atoms: _415  and  _416
REMARK  175  A    between atoms: _419  and  _421
REMARK  176  A    between atoms: _421  and  _422
REMARK  177  A    between atoms: _424  and  _426
REMARK  178  A    between atoms: _426  and  _427
REMARK  179  A    between atoms: _429  and  _431
REMARK  180  A    between atoms: _431  and  _432
REMARK  181  A    between atoms: _431  and  _434
REMARK  182  A    between atoms: _434  and  _435
REMARK  183  A    between atoms: _438  and  _440
REMARK  184  A    between atoms: _440  and  _441
REMARK  185  A    between atoms: _443  and  _445
REMARK  186  A    between atoms: _445  and  _446
REMARK  187  A    between atoms: _448  and  _450
REMARK  188  A    between atoms: _450  and  _451
REMARK  189  A    between atoms: _450  and  _453
REMARK  190  A    between atoms: _453  and  _454
REMARK  191  A    between atoms: _457  and  _459
REMARK  192  A    between atoms: _459  and  _460
REMARK  193  A    between atoms: _459  and  _462
REMARK  194  A    between atoms: _465  and  _467
REMARK  195  A    between atoms: _467  and  _468
REMARK  196  A    between atoms: _467  and  _470
REMARK  197  A    between atoms: _470  and  _471
REMARK  198  A    between atoms: _474  and  _476
REMARK  199  A    between atoms: _476  and  _477
REMARK  200  A    between atoms: _476  and  _479
REMARK  201  A    between atoms: _479  and  _480
REMARK  202  A    between atoms: _484  and  _485
REMARK  203  A    between atoms: _490  and  _492
REMARK  204  A    between atoms: _492  and  _493
REMARK  205  A    between atoms: _492  and  _495
REMARK  206  A    between atoms: _498  and  _500
REMARK  207  A    between atoms: _500  and  _501
REMARK  208  A    between atoms: _500  and  _503
REMARK  209  A    between atoms: _503  and  _504
REMARK  210  A    between atoms: _509  and  _511
REMARK  211  A    between atoms: _511  and  _512
REMARK  212  A    between atoms: _511  and  _514
REMARK  213  A    between atoms: _514  and  _515
REMARK  214  A    between atoms: _518  and  _520
REMARK  215  A    between atoms: _520  and  _521
REMARK  216  A    between atoms: _520  and  _523
REMARK  217  A    between atoms: _523  and  _524
REMARK  218  A    between atoms: _527  and  _529
REMARK  219  A    between atoms: _529  and  _530
REMARK  220  A    between atoms: _532  and  _534
REMARK  221  A    between atoms: _534  and  _535
REMARK  222  A    between atoms: _534  and  _537
REMARK  223  A    between atoms: _537  and  _538
REMARK  224  A    between atoms: _538  and  _539
REMARK  225  A    between atoms: _539  and  _540
REMARK  226  A    between atoms: _549  and  _551
REMARK  227  A    between atoms: _551  and  _552
REMARK  228  A    between atoms: _551  and  _554
REMARK  229  A    between atoms: _554  and  _555
REMARK                            x       y       z     vdW  Elec       q    Type
REMARK                         _______ _______ _______ _____ _____    ______ ____
ROOT
ATOM      1  O   HOH     1      23.849  22.126   8.115  0.00  0.00    +0.000 OA
ENDROOT
TORSDOF 0
REMARK  Name = ../refined-set-2016/2avo/2avo_pocket.pdb
REMARK  229 active torsions:
REMARK  status: ('A' for Active; 'I' for Inactive)
REMARK    1  A    between atoms: _1  and  _3
REMARK    2  A    between atoms: _3  and  _4
REMARK    3  A    between atoms: _3  and  _6
REMARK    4  A    between atoms: _6  and  _7
REMARK    5  A    between atoms: _7  and  _8
REMARK    6  A    between atoms: _8  and  _9
REMARK    7  A    between atoms: _18  and  _20
REMARK    8  A    between atoms: _20  and  _21
REMARK    9  A    between atoms: _20  and  _23
REMARK   10  A    between atoms: _23  and  _24
REMARK   11  A    between atoms: _27  and  _29
REMARK   12  A    between atoms: _29  and  _30
REMARK   13  A    between atoms: _29  and  _32
REMARK   14  A    between atoms: _32  and  _33
REMARK   15  A    between atoms: _36  and  _38
REMARK   16  A    between atoms: _38  and  _39
REMARK   17  A    between atoms: _38  and  _41
REMARK   18  A    between atoms: _41  and  _42
REMARK   19  A    between atoms: _45  and  _47
REMARK   20  A    between atoms: _47  and  _48
REMARK   21  A    between atoms: _47  and  _50
REMARK   22  A    between atoms: _50  and  _51
REMARK   23  A    between atoms: _54  and  _56
REMARK   24  A    between atoms: _56  and  _57
REMARK   25  A    between atoms: _56  and  _59
REMARK   26  A    between atoms: _59  and  _60
REMARK   27  A    between atoms: _63  and  _65
REMARK   28  A    between atoms: _65  and  _66
REMARK   29  A    between atoms: _68  and  _70
REMARK   30  A    between atoms: _70  and  _71
REMARK   31  A    between atoms: _74  and  _76
REMARK   32  A    between atoms: _76  and  _77
REMARK   33  A    between atoms: _76  and  _79
REMARK   34  A    between atoms: _79  and  _80
REMARK   35  A    between atoms: _83  and  _85
REMARK   36  A    between atoms: _85  and  _86
REMARK   37  A    between atoms: _85  and  _88
REMARK   38  A    between atoms: _88  and  _89
REMARK   39  A    between atoms: _92  and  _94
REMARK   40  A    between atoms: _94  and  _95
REMARK   41  A    between atoms: _94  and  _97
REMARK   42  A    between atoms: _97  and  _98
REMARK   43  A    between atoms: _101  and  _103
REMARK   44  A    between atoms: _103  and  _104
REMARK   45  A    between atoms: _103  and  _106
REMARK   46  A    between atoms: _109  and  _111
REMARK   47  A    between atoms: _111  and  _112
REMARK   48  A    between atoms: _111  and  _114
REMARK   49  A    between atoms: _114  and  _115
REMARK   50  A    between atoms: _115  and  _116
REMARK   51  A    between atoms: _118  and  _120
REMARK   52  A    between atoms: _120  and  _121
REMARK   53  A    between atoms: _120  and  _123
REMARK   54  A    between atoms: _123  and  _124
REMARK   55  A    between atoms: _127  and  _129
REMARK   56  A    between atoms: _129  and  _130
REMARK   57  A    between atoms: _132  and  _134
REMARK   58  A    between atoms: _134  and  _135
REMARK   59  A    between atoms: _137  and  _139
REMARK   60  A    between atoms: _139  and  _140
REMARK   61  A    between atoms: _139  and  _142
REMARK   62  A    between atoms: _142  and  _143
REMARK   63  A    between atoms: _146  and  _148
REMARK   64  A    between atoms: _148  and  _149
REMARK   65  A    between atoms: _151  and  _153
REMARK   66  A    between atoms: _153  and  _154
REMARK   67  A    between atoms: _156  and  _158
REMARK   68  A    between atoms: _158  and  _159
REMARK   69  A    between atoms: _158  and  _161
REMARK   70  A    between atoms: _161  and  _162
REMARK   71  A    between atoms: _168  and  _170
REMARK   72  A    between atoms: _170  and  _171
REMARK   73  A    between atoms: _170  and  _173
REMARK   74  A    between atoms: _173  and  _174
REMARK   75  A    between atoms: _177  and  _179
REMARK   76  A    between atoms: _179  and  _180
REMARK   77  A    between atoms: _179  and  _182
REMARK   78  A    between atoms: _185  and  _187
REMARK   79  A    between atoms: _187  and  _188
REMARK   80  A    between atoms: _187  and  _190
REMARK   81  A    between atoms: _190  and  _191
REMARK   82  A    between atoms: _194  and  _196
REMARK   83  A    between atoms: _196  and  _197
REMARK   84  A    between atoms: _196  and  _199
REMARK   85  A    between atoms: _199  and  _200
REMARK   86  A    between atoms: _204  and  _205
REMARK   87  A    between atoms: _210  and  _212
REMARK   88  A    between atoms: _212  and  _213
REMARK   89  A    between atoms: _212  and  _215
REMARK   90  A    between atoms: _218  and  _220
REMARK   91  A    between atoms: _220  and  _221
REMARK   92  A    between atoms: _220  and  _223
REMARK   93  A    between atoms: _223  and  _224
REMARK   94  A    between atoms: _229  and  _231
REMARK   95  A    between atoms: _231  and  _232
REMARK   96  A    between atoms: _231  and  _234
REMARK   97  A    between atoms: _234  and  _235
REMARK   98  A    between atoms: _238  and  _240
REMARK   99  A    between atoms: _240  and  _241
REMARK  100  A    between atoms: _240  and  _243
REMARK  101  A    between atoms: _243  and  _244
REMARK  102  A    between atoms: _247  and  _249
REMARK  103  A    between atoms: _249  and  _250
REMARK  104  A    between atoms: _252  and  _254
REMARK  105  A    between atoms: _254  and  _255
REMARK  106  A    between atoms: _254  and  _257
REMARK  107  A    between atoms: _257  and  _258
REMARK  108  A    between atoms: _258  and  _259
REMARK  109  A    between atoms: _259  and  _260
REMARK  110  A    between atoms: _269  and  _271
REMARK  111  A    between atoms: _271  and  _272
REMARK  112  A    between atoms: _271  and  _274
REMARK  113  A    between atoms: _274  and  _275
REMARK  114  A    between atoms: _280  and  _282
REMARK  115  A    between atoms: _282  and  _283
REMARK  116  A    between atoms: _282  and  _285
REMARK  117  A    between atoms: _285  and  _286
REMARK  118  A    between atoms: _286  and  _287
REMARK  119  A    between atoms: _287  and  _288
REMARK  120  A    between atoms: _297  and  _299
REMARK  121  A    between atoms: _299  and  _300
REMARK  122  A    between atoms: _299  and  _302
REMARK  123  A    between atoms: _302  and  _303
REMARK  124  A    between atoms: _306  and  _308
REMARK  125  A    between atoms: _308  and  _309
REMARK  126  A    between atoms: _308  and  _311
REMARK  127  A    between atoms: _311  and  _312
REMARK  128  A    between atoms: _315  and  _317
REMARK  129  A    between atoms: _317  and  _318
REMARK  130  A    between atoms: _317  and  _320
REMARK  131  A    between atoms: _320  and  _321
REMARK  132  A    between atoms: _324  and  _326
REMARK  133  A    between atoms: _326  and  _327
REMARK  134  A    between atoms: _326  and  _329
REMARK  135  A    between atoms: _329  and  _330
REMARK  136  A    between atoms: _333  and  _335
REMARK  137  A    between atoms: _335  and  _336
REMARK  138  A    between atoms: _338  and  _340
REMARK  139  A    between atoms: _340  and  _341
REMARK  140  A    between atoms: _344  and  _346
REMARK  141  A    between atoms: _346  and  _347
REMARK  142  A    between atoms: _346  and  _349
REMARK  143  A    between atoms: _349  and  _350
REMARK  144  A    between atoms: _353  and  _355
REMARK  145  A    between atoms: _355  and  _356
REMARK  146  A    between atoms: _355  and  _358
REMARK  147  A    between atoms: _358  and  _359
REMARK  148  A    between atoms: _362  and  _364
REMARK  149  A    between atoms: _364  and  _365
REMARK  150  A    between atoms: _364  and  _367
REMARK  151  A    between atoms: _367  and  _368
REMARK  152  A    between atoms: _371  and  _373
REMARK  153  A    between atoms: _373  and  _374
REMARK  154  A    between atoms: _373  and  _376
REMARK  155  A    between atoms: _379  and  _381
REMARK  156  A    between atoms: _381  and  _382
REMARK  157  A    between atoms: _381  and  _384
REMARK  158  A    between atoms: _384  and  _385
REMARK  159  A    between atoms: _388  and  _390
REMARK  160  A    between atoms: _390  and  _391
REMARK  161  A    between atoms: _390  and  _393
REMARK  162  A    between atoms: _393  and  _394
REMARK  163  A    between atoms: _394  and  _395
REMARK  164  A    between atoms: _395  and  _396
REMARK  165  A    between atoms: _396  and  _397
REMARK  166  A    between atoms: _401  and  _403
REMARK  167  A    between atoms: _403  and  _404
REMARK  168  A    between atoms: _403  and  _406
REMARK  169  A    between atoms: _406  and  _407
REMARK  170  A    between atoms: _407  and  _408
REMARK  171  A    between atoms: _410  and  _412
REMARK  172  A    between atoms: _412  and  _413
REMARK  173  A    between atoms: _412  and  _415
REMARK  174  A    between atoms: _415  and  _416
REMARK  175  A    between atoms: _419  and  _421
REMARK  176  A    between atoms: _421  and  _422
REMARK  177  A    between atoms: _424  and  _426
REMARK  178  A    between atoms: _426  and  _427
REMARK  179  A    between atoms: _429  and  _431
REMARK  180  A    between atoms: _431  and  _432
REMARK  181  A    between atoms: _431  and  _434
REMARK  182  A    between atoms: _434  and  _435
REMARK  183  A    between atoms: _438  and  _440
REMARK  184  A    between atoms: _440  and  _441
REMARK  185  A    between atoms: _443  and  _445
REMARK  186  A    between atoms: _445  and  _446
REMARK  187  A    between atoms: _448  and  _450
REMARK  188  A    between atoms: _450  and  _451
REMARK  189  A    between atoms: _450  and  _453
REMARK  190  A    between atoms: _453  and  _454
REMARK  191  A    between atoms: _457  and  _459
REMARK  192  A    between atoms: _459  and  _460
REMARK  193  A    between atoms: _459  and  _462
REMARK  194  A    between atoms: _465  and  _467
REMARK  195  A    between atoms: _467  and  _468
REMARK  196  A    between atoms: _467  and  _470
REMARK  197  A    between atoms: _470  and  _471
REMARK  198  A    between atoms: _474  and  _476
REMARK  199  A    between atoms: _476  and  _477
REMARK  200  A    between atoms: _476  and  _479
REMARK  201  A    between atoms: _479  and  _480
REMARK  202  A    between atoms: _484  and  _485
REMARK  203  A    between atoms: _490  and  _492
REMARK  204  A    between atoms: _492  and  _493
REMARK  205  A    between atoms: _492  and  _495
REMARK  206  A    between atoms: _498  and  _500
REMARK  207  A    between atoms: _500  and  _501
REMARK  208  A    between atoms: _500  and  _503
REMARK  209  A    between atoms: _503  and  _504
REMARK  210  A    between atoms: _509  and  _511
REMARK  211  A    between atoms: _511  and  _512
REMARK  212  A    between atoms: _511  and  _514
REMARK  213  A    between atoms: _514  and  _515
REMARK  214  A    between atoms: _518  and  _520
REMARK  215  A    between atoms: _520  and  _521
REMARK  216  A    between atoms: _520  and  _523
REMARK  217  A    between atoms: _523  and  _524
REMARK  218  A    between atoms: _527  and  _529
REMARK  219  A    between atoms: _529  and  _530
REMARK  220  A    between atoms: _532  and  _534
REMARK  221  A    between atoms: _534  and  _535
REMARK  222  A    between atoms: _534  and  _537
REMARK  223  A    between atoms: _537  and  _538
REMARK  224  A    between atoms: _538  and  _539
REMARK  225  A    between atoms: _539  and  _540
REMARK  226  A    between atoms: _549  and  _551
REMARK  227  A    between atoms: _551  and  _552
REMARK  228  A    between atoms: _551  and  _554
REMARK  229  A    between atoms: _554  and  _555
REMARK                            x       y       z     vdW  Elec       q    Type
REMARK                         _______ _______ _______ _____ _____    ______ ____
ROOT
ATOM      1  O   HOH     1      30.642  21.251  11.272  0.00  0.00    +0.000 OA
ENDROOT
TORSDOF 0
REMARK  Name = ../refined-set-2016/2avo/2avo_pocket.pdb
REMARK  229 active torsions:
REMARK  status: ('A' for Active; 'I' for Inactive)
REMARK    1  A    between atoms: _1  and  _3
REMARK    2  A    between atoms: _3  and  _4
REMARK    3  A    between atoms: _3  and  _6
REMARK    4  A    between atoms: _6  and  _7
REMARK    5  A    between atoms: _7  and  _8
REMARK    6  A    between atoms: _8  and  _9
REMARK    7  A    between atoms: _18  and  _20
REMARK    8  A    between atoms: _20  and  _21
REMARK    9  A    between atoms: _20  and  _23
REMARK   10  A    between atoms: _23  and  _24
REMARK   11  A    between atoms: _27  and  _29
REMARK   12  A    between atoms: _29  and  _30
REMARK   13  A    between atoms: _29  and  _32
REMARK   14  A    between atoms: _32  and  _33
REMARK   15  A    between atoms: _36  and  _38
REMARK   16  A    between atoms: _38  and  _39
REMARK   17  A    between atoms: _38  and  _41
REMARK   18  A    between atoms: _41  and  _42
REMARK   19  A    between atoms: _45  and  _47
REMARK   20  A    between atoms: _47  and  _48
REMARK   21  A    between atoms: _47  and  _50
REMARK   22  A    between atoms: _50  and  _51
REMARK   23  A    between atoms: _54  and  _56
REMARK   24  A    between atoms: _56  and  _57
REMARK   25  A    between atoms: _56  and  _59
REMARK   26  A    between atoms: _59  and  _60
REMARK   27  A    between atoms: _63  and  _65
REMARK   28  A    between atoms: _65  and  _66
REMARK   29  A    between atoms: _68  and  _70
REMARK   30  A    between atoms: _70  and  _71
REMARK   31  A    between atoms: _74  and  _76
REMARK   32  A    between atoms: _76  and  _77
REMARK   33  A    between atoms: _76  and  _79
REMARK   34  A    between atoms: _79  and  _80
REMARK   35  A    between atoms: _83  and  _85
REMARK   36  A    between atoms: _85  and  _86
REMARK   37  A    between atoms: _85  and  _88
REMARK   38  A    between atoms: _88  and  _89
REMARK   39  A    between atoms: _92  and  _94
REMARK   40  A    between atoms: _94  and  _95
REMARK   41  A    between atoms: _94  and  _97
REMARK   42  A    between atoms: _97  and  _98
REMARK   43  A    between atoms: _101  and  _103
REMARK   44  A    between atoms: _103  and  _104
REMARK   45  A    between atoms: _103  and  _106
REMARK   46  A    between atoms: _109  and  _111
REMARK   47  A    between atoms: _111  and  _112
REMARK   48  A    between atoms: _111  and  _114
REMARK   49  A    between atoms: _114  and  _115
REMARK   50  A    between atoms: _115  and  _116
REMARK   51  A    between atoms: _118  and  _120
REMARK   52  A    between atoms: _120  and  _121
REMARK   53  A    between atoms: _120  and  _123
REMARK   54  A    between atoms: _123  and  _124
REMARK   55  A    between atoms: _127  and  _129
REMARK   56  A    between atoms: _129  and  _130
REMARK   57  A    between atoms: _132  and  _134
REMARK   58  A    between atoms: _134  and  _135
REMARK   59  A    between atoms: _137  and  _139
REMARK   60  A    between atoms: _139  and  _140
REMARK   61  A    between atoms: _139  and  _142
REMARK   62  A    between atoms: _142  and  _143
REMARK   63  A    between atoms: _146  and  _148
REMARK   64  A    between atoms: _148  and  _149
REMARK   65  A    between atoms: _151  and  _153
REMARK   66  A    between atoms: _153  and  _154
REMARK   67  A    between atoms: _156  and  _158
REMARK   68  A    between atoms: _158  and  _159
REMARK   69  A    between atoms: _158  and  _161
REMARK   70  A    between atoms: _161  and  _162
REMARK   71  A    between atoms: _168  and  _170
REMARK   72  A    between atoms: _170  and  _171
REMARK   73  A    between atoms: _170  and  _173
REMARK   74  A    between atoms: _173  and  _174
REMARK   75  A    between atoms: _177  and  _179
REMARK   76  A    between atoms: _179  and  _180
REMARK   77  A    between atoms: _179  and  _182
REMARK   78  A    between atoms: _185  and  _187
REMARK   79  A    between atoms: _187  and  _188
REMARK   80  A    between atoms: _187  and  _190
REMARK   81  A    between atoms: _190  and  _191
REMARK   82  A    between atoms: _194  and  _196
REMARK   83  A    between atoms: _196  and  _197
REMARK   84  A    between atoms: _196  and  _199
REMARK   85  A    between atoms: _199  and  _200
REMARK   86  A    between atoms: _204  and  _205
REMARK   87  A    between atoms: _210  and  _212
REMARK   88  A    between atoms: _212  and  _213
REMARK   89  A    between atoms: _212  and  _215
REMARK   90  A    between atoms: _218  and  _220
REMARK   91  A    between atoms: _220  and  _221
REMARK   92  A    between atoms: _220  and  _223
REMARK   93  A    between atoms: _223  and  _224
REMARK   94  A    between atoms: _229  and  _231
REMARK   95  A    between atoms: _231  and  _232
REMARK   96  A    between atoms: _231  and  _234
REMARK   97  A    between atoms: _234  and  _235
REMARK   98  A    between atoms: _238  and  _240
REMARK   99  A    between atoms: _240  and  _241
REMARK  100  A    between atoms: _240  and  _243
REMARK  101  A    between atoms: _243  and  _244
REMARK  102  A    between atoms: _247  and  _249
REMARK  103  A    between atoms: _249  and  _250
REMARK  104  A    between atoms: _252  and  _254
REMARK  105  A    between atoms: _254  and  _255
REMARK  106  A    between atoms: _254  and  _257
REMARK  107  A    between atoms: _257  and  _258
REMARK  108  A    between atoms: _258  and  _259
REMARK  109  A    between atoms: _259  and  _260
REMARK  110  A    between atoms: _269  and  _271
REMARK  111  A    between atoms: _271  and  _272
REMARK  112  A    between atoms: _271  and  _274
REMARK  113  A    between atoms: _274  and  _275
REMARK  114  A    between atoms: _280  and  _282
REMARK  115  A    between atoms: _282  and  _283
REMARK  116  A    between atoms: _282  and  _285
REMARK  117  A    between atoms: _285  and  _286
REMARK  118  A    between atoms: _286  and  _287
REMARK  119  A    between atoms: _287  and  _288
REMARK  120  A    between atoms: _297  and  _299
REMARK  121  A    between atoms: _299  and  _300
REMARK  122  A    between atoms: _299  and  _302
REMARK  123  A    between atoms: _302  and  _303
REMARK  124  A    between atoms: _306  and  _308
REMARK  125  A    between atoms: _308  and  _309
REMARK  126  A    between atoms: _308  and  _311
REMARK  127  A    between atoms: _311  and  _312
REMARK  128  A    between atoms: _315  and  _317
REMARK  129  A    between atoms: _317  and  _318
REMARK  130  A    between atoms: _317  and  _320
REMARK  131  A    between atoms: _320  and  _321
REMARK  132  A    between atoms: _324  and  _326
REMARK  133  A    between atoms: _326  and  _327
REMARK  134  A    between atoms: _326  and  _329
REMARK  135  A    between atoms: _329  and  _330
REMARK  136  A    between atoms: _333  and  _335
REMARK  137  A    between atoms: _335  and  _336
REMARK  138  A    between atoms: _338  and  _340
REMARK  139  A    between atoms: _340  and  _341
REMARK  140  A    between atoms: _344  and  _346
REMARK  141  A    between atoms: _346  and  _347
REMARK  142  A    between atoms: _346  and  _349
REMARK  143  A    between atoms: _349  and  _350
REMARK  144  A    between atoms: _353  and  _355
REMARK  145  A    between atoms: _355  and  _356
REMARK  146  A    between atoms: _355  and  _358
REMARK  147  A    between atoms: _358  and  _359
REMARK  148  A    between atoms: _362  and  _364
REMARK  149  A    between atoms: _364  and  _365
REMARK  150  A    between atoms: _364  and  _367
REMARK  151  A    between atoms: _367  and  _368
REMARK  152  A    between atoms: _371  and  _373
REMARK  153  A    between atoms: _373  and  _374
REMARK  154  A    between atoms: _373  and  _376
REMARK  155  A    between atoms: _379  and  _381
REMARK  156  A    between atoms: _381  and  _382
REMARK  157  A    between atoms: _381  and  _384
REMARK  158  A    between atoms: _384  and  _385
REMARK  159  A    between atoms: _388  and  _390
REMARK  160  A    between atoms: _390  and  _391
REMARK  161  A    between atoms: _390  and  _393
REMARK  162  A    between atoms: _393  and  _394
REMARK  163  A    between atoms: _394  and  _395
REMARK  164  A    between atoms: _395  and  _396
REMARK  165  A    between atoms: _396  and  _397
REMARK  166  A    between atoms: _401  and  _403
REMARK  167  A    between atoms: _403  and  _404
REMARK  168  A    between atoms: _403  and  _406
REMARK  169  A    between atoms: _406  and  _407
REMARK  170  A    between atoms: _407  and  _408
REMARK  171  A    between atoms: _410  and  _412
REMARK  172  A    between atoms: _412  and  _413
REMARK  173  A    between atoms: _412  and  _415
REMARK  174  A    between atoms: _415  and  _416
REMARK  175  A    between atoms: _419  and  _421
REMARK  176  A    between atoms: _421  and  _422
REMARK  177  A    between atoms: _424  and  _426
REMARK  178  A    between atoms: _426  and  _427
REMARK  179  A    between atoms: _429  and  _431
REMARK  180  A    between atoms: _431  and  _432
REMARK  181  A    between atoms: _431  and  _434
REMARK  182  A    between atoms: _434  and  _435
REMARK  183  A    between atoms: _438  and  _440
REMARK  184  A    between atoms: _440  and  _441
REMARK  185  A    between atoms: _443  and  _445
REMARK  186  A    between atoms: _445  and  _446
REMARK  187  A    between atoms: _448  and  _450
REMARK  188  A    between atoms: _450  and  _451
REMARK  189  A    between atoms: _450  and  _453
REMARK  190  A    between atoms: _453  and  _454
REMARK  191  A    between atoms: _457  and  _459
REMARK  192  A    between atoms: _459  and  _460
REMARK  193  A    between atoms: _459  and  _462
REMARK  194  A    between atoms: _465  and  _467
REMARK  195  A    between atoms: _467  and  _468
REMARK  196  A    between atoms: _467  and  _470
REMARK  197  A    between atoms: _470  and  _471
REMARK  198  A    between atoms: _474  and  _476
REMARK  199  A    between atoms: _476  and  _477
REMARK  200  A    between atoms: _476  and  _479
REMARK  201  A    between atoms: _479  and  _480
REMARK  202  A    between atoms: _484  and  _485
REMARK  203  A    between atoms: _490  and  _492
REMARK  204  A    between atoms: _492  and  _493
REMARK  205  A    between atoms: _492  and  _495
REMARK  206  A    between atoms: _498  and  _500
REMARK  207  A    between atoms: _500  and  _501
REMARK  208  A    between atoms: _500  and  _503
REMARK  209  A    between atoms: _503  and  _504
REMARK  210  A    between atoms: _509  and  _511
REMARK  211  A    between atoms: _511  and  _512
REMARK  212  A    between atoms: _511  and  _514
REMARK  213  A    between atoms: _514  and  _515
REMARK  214  A    between atoms: _518  and  _520
REMARK  215  A    between atoms: _520  and  _521
REMARK  216  A    between atoms: _520  and  _523
REMARK  217  A    between atoms: _523  and  _524
REMARK  218  A    between atoms: _527  and  _529
REMARK  219  A    between atoms: _529  and  _530
REMARK  220  A    between atoms: _532  and  _534
REMARK  221  A    between atoms: _534  and  _535
REMARK  222  A    between atoms: _534  and  _537
REMARK  223  A    between atoms: _537  and  _538
REMARK  224  A    between atoms: _538  and  _539
REMARK  225  A    between atoms: _539  and  _540
REMARK  226  A    between atoms: _549  and  _551
REMARK  227  A    between atoms: _551  and  _552
REMARK  228  A    between atoms: _551  and  _554
REMARK  229  A    between atoms: _554  and  _555
REMARK                            x       y       z     vdW  Elec       q    Type
REMARK                         _______ _______ _______ _____ _____    ______ ____
ROOT
ATOM      1  O   HOH     1      26.759  20.387   8.895  0.00  0.00    +0.000 OA
ENDROOT
TORSDOF 0
REMARK  Name = ../refined-set-2016/2avo/2avo_pocket.pdb
REMARK  229 active torsions:
REMARK  status: ('A' for Active; 'I' for Inactive)
REMARK    1  A    between atoms: _1  and  _3
REMARK    2  A    between atoms: _3  and  _4
REMARK    3  A    between atoms: _3  and  _6
REMARK    4  A    between atoms: _6  and  _7
REMARK    5  A    between atoms: _7  and  _8
REMARK    6  A    between atoms: _8  and  _9
REMARK    7  A    between atoms: _18  and  _20
REMARK    8  A    between atoms: _20  and  _21
REMARK    9  A    between atoms: _20  and  _23
REMARK   10  A    between atoms: _23  and  _24
REMARK   11  A    between atoms: _27  and  _29
REMARK   12  A    between atoms: _29  and  _30
REMARK   13  A    between atoms: _29  and  _32
REMARK   14  A    between atoms: _32  and  _33
REMARK   15  A    between atoms: _36  and  _38
REMARK   16  A    between atoms: _38  and  _39
REMARK   17  A    between atoms: _38  and  _41
REMARK   18  A    between atoms: _41  and  _42
REMARK   19  A    between atoms: _45  and  _47
REMARK   20  A    between atoms: _47  and  _48
REMARK   21  A    between atoms: _47  and  _50
REMARK   22  A    between atoms: _50  and  _51
REMARK   23  A    between atoms: _54  and  _56
REMARK   24  A    between atoms: _56  and  _57
REMARK   25  A    between atoms: _56  and  _59
REMARK   26  A    between atoms: _59  and  _60
REMARK   27  A    between atoms: _63  and  _65
REMARK   28  A    between atoms: _65  and  _66
REMARK   29  A    between atoms: _68  and  _70
REMARK   30  A    between atoms: _70  and  _71
REMARK   31  A    between atoms: _74  and  _76
REMARK   32  A    between atoms: _76  and  _77
REMARK   33  A    between atoms: _76  and  _79
REMARK   34  A    between atoms: _79  and  _80
REMARK   35  A    between atoms: _83  and  _85
REMARK   36  A    between atoms: _85  and  _86
REMARK   37  A    between atoms: _85  and  _88
REMARK   38  A    between atoms: _88  and  _89
REMARK   39  A    between atoms: _92  and  _94
REMARK   40  A    between atoms: _94  and  _95
REMARK   41  A    between atoms: _94  and  _97
REMARK   42  A    between atoms: _97  and  _98
REMARK   43  A    between atoms: _101  and  _103
REMARK   44  A    between atoms: _103  and  _104
REMARK   45  A    between atoms: _103  and  _106
REMARK   46  A    between atoms: _109  and  _111
REMARK   47  A    between atoms: _111  and  _112
REMARK   48  A    between atoms: _111  and  _114
REMARK   49  A    between atoms: _114  and  _115
REMARK   50  A    between atoms: _115  and  _116
REMARK   51  A    between atoms: _118  and  _120
REMARK   52  A    between atoms: _120  and  _121
REMARK   53  A    between atoms: _120  and  _123
REMARK   54  A    between atoms: _123  and  _124
REMARK   55  A    between atoms: _127  and  _129
REMARK   56  A    between atoms: _129  and  _130
REMARK   57  A    between atoms: _132  and  _134
REMARK   58  A    between atoms: _134  and  _135
REMARK   59  A    between atoms: _137  and  _139
REMARK   60  A    between atoms: _139  and  _140
REMARK   61  A    between atoms: _139  and  _142
REMARK   62  A    between atoms: _142  and  _143
REMARK   63  A    between atoms: _146  and  _148
REMARK   64  A    between atoms: _148  and  _149
REMARK   65  A    between atoms: _151  and  _153
REMARK   66  A    between atoms: _153  and  _154
REMARK   67  A    between atoms: _156  and  _158
REMARK   68  A    between atoms: _158  and  _159
REMARK   69  A    between atoms: _158  and  _161
REMARK   70  A    between atoms: _161  and  _162
REMARK   71  A    between atoms: _168  and  _170
REMARK   72  A    between atoms: _170  and  _171
REMARK   73  A    between atoms: _170  and  _173
REMARK   74  A    between atoms: _173  and  _174
REMARK   75  A    between atoms: _177  and  _179
REMARK   76  A    between atoms: _179  and  _180
REMARK   77  A    between atoms: _179  and  _182
REMARK   78  A    between atoms: _185  and  _187
REMARK   79  A    between atoms: _187  and  _188
REMARK   80  A    between atoms: _187  and  _190
REMARK   81  A    between atoms: _190  and  _191
REMARK   82  A    between atoms: _194  and  _196
REMARK   83  A    between atoms: _196  and  _197
REMARK   84  A    between atoms: _196  and  _199
REMARK   85  A    between atoms: _199  and  _200
REMARK   86  A    between atoms: _204  and  _205
REMARK   87  A    between atoms: _210  and  _212
REMARK   88  A    between atoms: _212  and  _213
REMARK   89  A    between atoms: _212  and  _215
REMARK   90  A    between atoms: _218  and  _220
REMARK   91  A    between atoms: _220  and  _221
REMARK   92  A    between atoms: _220  and  _223
REMARK   93  A    between atoms: _223  and  _224
REMARK   94  A    between atoms: _229  and  _231
REMARK   95  A    between atoms: _231  and  _232
REMARK   96  A    between atoms: _231  and  _234
REMARK   97  A    between atoms: _234  and  _235
REMARK   98  A    between atoms: _238  and  _240
REMARK   99  A    between atoms: _240  and  _241
REMARK  100  A    between atoms: _240  and  _243
REMARK  101  A    between atoms: _243  and  _244
REMARK  102  A    between atoms: _247  and  _249
REMARK  103  A    between atoms: _249  and  _250
REMARK  104  A    between atoms: _252  and  _254
REMARK  105  A    between atoms: _254  and  _255
REMARK  106  A    between atoms: _254  and  _257
REMARK  107  A    between atoms: _257  and  _258
REMARK  108  A    between atoms: _258  and  _259
REMARK  109  A    between atoms: _259  and  _260
REMARK  110  A    between atoms: _269  and  _271
REMARK  111  A    between atoms: _271  and  _272
REMARK  112  A    between atoms: _271  and  _274
REMARK  113  A    between atoms: _274  and  _275
REMARK  114  A    between atoms: _280  and  _282
REMARK  115  A    between atoms: _282  and  _283
REMARK  116  A    between atoms: _282  and  _285
REMARK  117  A    between atoms: _285  and  _286
REMARK  118  A    between atoms: _286  and  _287
REMARK  119  A    between atoms: _287  and  _288
REMARK  120  A    between atoms: _297  and  _299
REMARK  121  A    between atoms: _299  and  _300
REMARK  122  A    between atoms: _299  and  _302
REMARK  123  A    between atoms: _302  and  _303
REMARK  124  A    between atoms: _306  and  _308
REMARK  125  A    between atoms: _308  and  _309
REMARK  126  A    between atoms: _308  and  _311
REMARK  127  A    between atoms: _311  and  _312
REMARK  128  A    between atoms: _315  and  _317
REMARK  129  A    between atoms: _317  and  _318
REMARK  130  A    between atoms: _317  and  _320
REMARK  131  A    between atoms: _320  and  _321
REMARK  132  A    between atoms: _324  and  _326
REMARK  133  A    between atoms: _326  and  _327
REMARK  134  A    between atoms: _326  and  _329
REMARK  135  A    between atoms: _329  and  _330
REMARK  136  A    between atoms: _333  and  _335
REMARK  137  A    between atoms: _335  and  _336
REMARK  138  A    between atoms: _338  and  _340
REMARK  139  A    between atoms: _340  and  _341
REMARK  140  A    between atoms: _344  and  _346
REMARK  141  A    between atoms: _346  and  _347
REMARK  142  A    between atoms: _346  and  _349
REMARK  143  A    between atoms: _349  and  _350
REMARK  144  A    between atoms: _353  and  _355
REMARK  145  A    between atoms: _355  and  _356
REMARK  146  A    between atoms: _355  and  _358
REMARK  147  A    between atoms: _358  and  _359
REMARK  148  A    between atoms: _362  and  _364
REMARK  149  A    between atoms: _364  and  _365
REMARK  150  A    between atoms: _364  and  _367
REMARK  151  A    between atoms: _367  and  _368
REMARK  152  A    between atoms: _371  and  _373
REMARK  153  A    between atoms: _373  and  _374
REMARK  154  A    between atoms: _373  and  _376
REMARK  155  A    between atoms: _379  and  _381
REMARK  156  A    between atoms: _381  and  _382
REMARK  157  A    between atoms: _381  and  _384
REMARK  158  A    between atoms: _384  and  _385
REMARK  159  A    between atoms: _388  and  _390
REMARK  160  A    between atoms: _390  and  _391
REMARK  161  A    between atoms: _390  and  _393
REMARK  162  A    between atoms: _393  and  _394
REMARK  163  A    between atoms: _394  and  _395
REMARK  164  A    between atoms: _395  and  _396
REMARK  165  A    between atoms: _396  and  _397
REMARK  166  A    between atoms: _401  and  _403
REMARK  167  A    between atoms: _403  and  _404
REMARK  168  A    between atoms: _403  and  _406
REMARK  169  A    between atoms: _406  and  _407
REMARK  170  A    between atoms: _407  and  _408
REMARK  171  A    between atoms: _410  and  _412
REMARK  172  A    between atoms: _412  and  _413
REMARK  173  A    between atoms: _412  and  _415
REMARK  174  A    between atoms: _415  and  _416
REMARK  175  A    between atoms: _419  and  _421
REMARK  176  A    between atoms: _421  and  _422
REMARK  177  A    between atoms: _424  and  _426
REMARK  178  A    between atoms: _426  and  _427
REMARK  179  A    between atoms: _429  and  _431
REMARK  180  A    between atoms: _431  and  _432
REMARK  181  A    between atoms: _431  and  _434
REMARK  182  A    between atoms: _434  and  _435
REMARK  183  A    between atoms: _438  and  _440
REMARK  184  A    between atoms: _440  and  _441
REMARK  185  A    between atoms: _443  and  _445
REMARK  186  A    between atoms: _445  and  _446
REMARK  187  A    between atoms: _448  and  _450
REMARK  188  A    between atoms: _450  and  _451
REMARK  189  A    between atoms: _450  and  _453
REMARK  190  A    between atoms: _453  and  _454
REMARK  191  A    between atoms: _457  and  _459
REMARK  192  A    between atoms: _459  and  _460
REMARK  193  A    between atoms: _459  and  _462
REMARK  194  A    between atoms: _465  and  _467
REMARK  195  A    between atoms: _467  and  _468
REMARK  196  A    between atoms: _467  and  _470
REMARK  197  A    between atoms: _470  and  _471
REMARK  198  A    between atoms: _474  and  _476
REMARK  199  A    between atoms: _476  and  _477
REMARK  200  A    between atoms: _476  and  _479
REMARK  201  A    between atoms: _479  and  _480
REMARK  202  A    between atoms: _484  and  _485
REMARK  203  A    between atoms: _490  and  _492
REMARK  204  A    between atoms: _492  and  _493
REMARK  205  A    between atoms: _492  and  _495
REMARK  206  A    between atoms: _498  and  _500
REMARK  207  A    between atoms: _500  and  _501
REMARK  208  A    between atoms: _500  and  _503
REMARK  209  A    between atoms: _503  and  _504
REMARK  210  A    between atoms: _509  and  _511
REMARK  211  A    between atoms: _511  and  _512
REMARK  212  A    between atoms: _511  and  _514
REMARK  213  A    between atoms: _514  and  _515
REMARK  214  A    between atoms: _518  and  _520
REMARK  215  A    between atoms: _520  and  _521
REMARK  216  A    between atoms: _520  and  _523
REMARK  217  A    between atoms: _523  and  _524
REMARK  218  A    between atoms: _527  and  _529
REMARK  219  A    between atoms: _529  and  _530
REMARK  220  A    between atoms: _532  and  _534
REMARK  221  A    between atoms: _534  and  _535
REMARK  222  A    between atoms: _534  and  _537
REMARK  223  A    between atoms: _537  and  _538
REMARK  224  A    between atoms: _538  and  _539
REMARK  225  A    between atoms: _539  and  _540
REMARK  226  A    between atoms: _549  and  _551
REMARK  227  A    between atoms: _551  and  _552
REMARK  228  A    between atoms: _551  and  _554
REMARK  229  A    between atoms: _554  and  _555
REMARK                            x       y       z     vdW  Elec       q    Type
REMARK                         _______ _______ _______ _____ _____    ______ ____
ROOT
ATOM      1  O   HOH     1      26.254  37.647  22.723  0.00  0.00    +0.000 OA
ENDROOT
TORSDOF 0
REMARK  Name = ../refined-set-2016/2avo/2avo_pocket.pdb
REMARK  229 active torsions:
REMARK  status: ('A' for Active; 'I' for Inactive)
REMARK    1  A    between atoms: _1  and  _3
REMARK    2  A    between atoms: _3  and  _4
REMARK    3  A    between atoms: _3  and  _6
REMARK    4  A    between atoms: _6  and  _7
REMARK    5  A    between atoms: _7  and  _8
REMARK    6  A    between atoms: _8  and  _9
REMARK    7  A    between atoms: _18  and  _20
REMARK    8  A    between atoms: _20  and  _21
REMARK    9  A    between atoms: _20  and  _23
REMARK   10  A    between atoms: _23  and  _24
REMARK   11  A    between atoms: _27  and  _29
REMARK   12  A    between atoms: _29  and  _30
REMARK   13  A    between atoms: _29  and  _32
REMARK   14  A    between atoms: _32  and  _33
REMARK   15  A    between atoms: _36  and  _38
REMARK   16  A    between atoms: _38  and  _39
REMARK   17  A    between atoms: _38  and  _41
REMARK   18  A    between atoms: _41  and  _42
REMARK   19  A    between atoms: _45  and  _47
REMARK   20  A    between atoms: _47  and  _48
REMARK   21  A    between atoms: _47  and  _50
REMARK   22  A    between atoms: _50  and  _51
REMARK   23  A    between atoms: _54  and  _56
REMARK   24  A    between atoms: _56  and  _57
REMARK   25  A    between atoms: _56  and  _59
REMARK   26  A    between atoms: _59  and  _60
REMARK   27  A    between atoms: _63  and  _65
REMARK   28  A    between atoms: _65  and  _66
REMARK   29  A    between atoms: _68  and  _70
REMARK   30  A    between atoms: _70  and  _71
REMARK   31  A    between atoms: _74  and  _76
REMARK   32  A    between atoms: _76  and  _77
REMARK   33  A    between atoms: _76  and  _79
REMARK   34  A    between atoms: _79  and  _80
REMARK   35  A    between atoms: _83  and  _85
REMARK   36  A    between atoms: _85  and  _86
REMARK   37  A    between atoms: _85  and  _88
REMARK   38  A    between atoms: _88  and  _89
REMARK   39  A    between atoms: _92  and  _94
REMARK   40  A    between atoms: _94  and  _95
REMARK   41  A    between atoms: _94  and  _97
REMARK   42  A    between atoms: _97  and  _98
REMARK   43  A    between atoms: _101  and  _103
REMARK   44  A    between atoms: _103  and  _104
REMARK   45  A    between atoms: _103  and  _106
REMARK   46  A    between atoms: _109  and  _111
REMARK   47  A    between atoms: _111  and  _112
REMARK   48  A    between atoms: _111  and  _114
REMARK   49  A    between atoms: _114  and  _115
REMARK   50  A    between atoms: _115  and  _116
REMARK   51  A    between atoms: _118  and  _120
REMARK   52  A    between atoms: _120  and  _121
REMARK   53  A    between atoms: _120  and  _123
REMARK   54  A    between atoms: _123  and  _124
REMARK   55  A    between atoms: _127  and  _129
REMARK   56  A    between atoms: _129  and  _130
REMARK   57  A    between atoms: _132  and  _134
REMARK   58  A    between atoms: _134  and  _135
REMARK   59  A    between atoms: _137  and  _139
REMARK   60  A    between atoms: _139  and  _140
REMARK   61  A    between atoms: _139  and  _142
REMARK   62  A    between atoms: _142  and  _143
REMARK   63  A    between atoms: _146  and  _148
REMARK   64  A    between atoms: _148  and  _149
REMARK   65  A    between atoms: _151  and  _153
REMARK   66  A    between atoms: _153  and  _154
REMARK   67  A    between atoms: _156  and  _158
REMARK   68  A    between atoms: _158  and  _159
REMARK   69  A    between atoms: _158  and  _161
REMARK   70  A    between atoms: _161  and  _162
REMARK   71  A    between atoms: _168  and  _170
REMARK   72  A    between atoms: _170  and  _171
REMARK   73  A    between atoms: _170  and  _173
REMARK   74  A    between atoms: _173  and  _174
REMARK   75  A    between atoms: _177  and  _179
REMARK   76  A    between atoms: _179  and  _180
REMARK   77  A    between atoms: _179  and  _182
REMARK   78  A    between atoms: _185  and  _187
REMARK   79  A    between atoms: _187  and  _188
REMARK   80  A    between atoms: _187  and  _190
REMARK   81  A    between atoms: _190  and  _191
REMARK   82  A    between atoms: _194  and  _196
REMARK   83  A    between atoms: _196  and  _197
REMARK   84  A    between atoms: _196  and  _199
REMARK   85  A    between atoms: _199  and  _200
REMARK   86  A    between atoms: _204  and  _205
REMARK   87  A    between atoms: _210  and  _212
REMARK   88  A    between atoms: _212  and  _213
REMARK   89  A    between atoms: _212  and  _215
REMARK   90  A    between atoms: _218  and  _220
REMARK   91  A    between atoms: _220  and  _221
REMARK   92  A    between atoms: _220  and  _223
REMARK   93  A    between atoms: _223  and  _224
REMARK   94  A    between atoms: _229  and  _231
REMARK   95  A    between atoms: _231  and  _232
REMARK   96  A    between atoms: _231  and  _234
REMARK   97  A    between atoms: _234  and  _235
REMARK   98  A    between atoms: _238  and  _240
REMARK   99  A    between atoms: _240  and  _241
REMARK  100  A    between atoms: _240  and  _243
REMARK  101  A    between atoms: _243  and  _244
REMARK  102  A    between atoms: _247  and  _249
REMARK  103  A    between atoms: _249  and  _250
REMARK  104  A    between atoms: _252  and  _254
REMARK  105  A    between atoms: _254  and  _255
REMARK  106  A    between atoms: _254  and  _257
REMARK  107  A    between atoms: _257  and  _258
REMARK  108  A    between atoms: _258  and  _259
REMARK  109  A    between atoms: _259  and  _260
REMARK  110  A    between atoms: _269  and  _271
REMARK  111  A    between atoms: _271  and  _272
REMARK  112  A    between atoms: _271  and  _274
REMARK  113  A    between atoms: _274  and  _275
REMARK  114  A    between atoms: _280  and  _282
REMARK  115  A    between atoms: _282  and  _283
REMARK  116  A    between atoms: _282  and  _285
REMARK  117  A    between atoms: _285  and  _286
REMARK  118  A    between atoms: _286  and  _287
REMARK  119  A    between atoms: _287  and  _288
REMARK  120  A    between atoms: _297  and  _299
REMARK  121  A    between atoms: _299  and  _300
REMARK  122  A    between atoms: _299  and  _302
REMARK  123  A    between atoms: _302  and  _303
REMARK  124  A    between atoms: _306  and  _308
REMARK  125  A    between atoms: _308  and  _309
REMARK  126  A    between atoms: _308  and  _311
REMARK  127  A    between atoms: _311  and  _312
REMARK  128  A    between atoms: _315  and  _317
REMARK  129  A    between atoms: _317  and  _318
REMARK  130  A    between atoms: _317  and  _320
REMARK  131  A    between atoms: _320  and  _321
REMARK  132  A    between atoms: _324  and  _326
REMARK  133  A    between atoms: _326  and  _327
REMARK  134  A    between atoms: _326  and  _329
REMARK  135  A    between atoms: _329  and  _330
REMARK  136  A    between atoms: _333  and  _335
REMARK  137  A    between atoms: _335  and  _336
REMARK  138  A    between atoms: _338  and  _340
REMARK  139  A    between atoms: _340  and  _341
REMARK  140  A    between atoms: _344  and  _346
REMARK  141  A    between atoms: _346  and  _347
REMARK  142  A    between atoms: _346  and  _349
REMARK  143  A    between atoms: _349  and  _350
REMARK  144  A    between atoms: _353  and  _355
REMARK  145  A    between atoms: _355  and  _356
REMARK  146  A    between atoms: _355  and  _358
REMARK  147  A    between atoms: _358  and  _359
REMARK  148  A    between atoms: _362  and  _364
REMARK  149  A    between atoms: _364  and  _365
REMARK  150  A    between atoms: _364  and  _367
REMARK  151  A    between atoms: _367  and  _368
REMARK  152  A    between atoms: _371  and  _373
REMARK  153  A    between atoms: _373  and  _374
REMARK  154  A    between atoms: _373  and  _376
REMARK  155  A    between atoms: _379  and  _381
REMARK  156  A    between atoms: _381  and  _382
REMARK  157  A    between atoms: _381  and  _384
REMARK  158  A    between atoms: _384  and  _385
REMARK  159  A    between atoms: _388  and  _390
REMARK  160  A    between atoms: _390  and  _391
REMARK  161  A    between atoms: _390  and  _393
REMARK  162  A    between atoms: _393  and  _394
REMARK  163  A    between atoms: _394  and  _395
REMARK  164  A    between atoms: _395  and  _396
REMARK  165  A    between atoms: _396  and  _397
REMARK  166  A    between atoms: _401  and  _403
REMARK  167  A    between atoms: _403  and  _404
REMARK  168  A    between atoms: _403  and  _406
REMARK  169  A    between atoms: _406  and  _407
REMARK  170  A    between atoms: _407  and  _408
REMARK  171  A    between atoms: _410  and  _412
REMARK  172  A    between atoms: _412  and  _413
REMARK  173  A    between atoms: _412  and  _415
REMARK  174  A    between atoms: _415  and  _416
REMARK  175  A    between atoms: _419  and  _421
REMARK  176  A    between atoms: _421  and  _422
REMARK  177  A    between atoms: _424  and  _426
REMARK  178  A    between atoms: _426  and  _427
REMARK  179  A    between atoms: _429  and  _431
REMARK  180  A    between atoms: _431  and  _432
REMARK  181  A    between atoms: _431  and  _434
REMARK  182  A    between atoms: _434  and  _435
REMARK  183  A    between atoms: _438  and  _440
REMARK  184  A    between atoms: _440  and  _441
REMARK  185  A    between atoms: _443  and  _445
REMARK  186  A    between atoms: _445  and  _446
REMARK  187  A    between atoms: _448  and  _450
REMARK  188  A    between atoms: _450  and  _451
REMARK  189  A    between atoms: _450  and  _453
REMARK  190  A    between atoms: _453  and  _454
REMARK  191  A    between atoms: _457  and  _459
REMARK  192  A    between atoms: _459  and  _460
REMARK  193  A    between atoms: _459  and  _462
REMARK  194  A    between atoms: _465  and  _467
REMARK  195  A    between atoms: _467  and  _468
REMARK  196  A    between atoms: _467  and  _470
REMARK  197  A    between atoms: _470  and  _471
REMARK  198  A    between atoms: _474  and  _476
REMARK  199  A    between atoms: _476  and  _477
REMARK  200  A    between atoms: _476  and  _479
REMARK  201  A    between atoms: _479  and  _480
REMARK  202  A    between atoms: _484  and  _485
REMARK  203  A    between atoms: _490  and  _492
REMARK  204  A    between atoms: _492  and  _493
REMARK  205  A    between atoms: _492  and  _495
REMARK  206  A    between atoms: _498  and  _500
REMARK  207  A    between atoms: _500  and  _501
REMARK  208  A    between atoms: _500  and  _503
REMARK  209  A    between atoms: _503  and  _504
REMARK  210  A    between atoms: _509  and  _511
REMARK  211  A    between atoms: _511  and  _512
REMARK  212  A    between atoms: _511  and  _514
REMARK  213  A    between atoms: _514  and  _515
REMARK  214  A    between atoms: _518  and  _520
REMARK  215  A    between atoms: _520  and  _521
REMARK  216  A    between atoms: _520  and  _523
REMARK  217  A    between atoms: _523  and  _524
REMARK  218  A    between atoms: _527  and  _529
REMARK  219  A    between atoms: _529  and  _530
REMARK  220  A    between atoms: _532  and  _534
REMARK  221  A    between atoms: _534  and  _535
REMARK  222  A    between atoms: _534  and  _537
REMARK  223  A    between atoms: _537  and  _538
REMARK  224  A    between atoms: _538  and  _539
REMARK  225  A    between atoms: _539  and  _540
REMARK  226  A    between atoms: _549  and  _551
REMARK  227  A    between atoms: _551  and  _552
REMARK  228  A    between atoms: _551  and  _554
REMARK  229  A    between atoms: _554  and  _555
REMARK                            x       y       z     vdW  Elec       q    Type
REMARK                         _______ _______ _______ _____ _____    ______ ____
ROOT
ATOM      1  O   HOH     1      25.687  23.976   7.409  0.00  0.00    +0.000 OA
ENDROOT
TORSDOF 0
REMARK  Name = ../refined-set-2016/2avo/2avo_pocket.pdb
REMARK  229 active torsions:
REMARK  status: ('A' for Active; 'I' for Inactive)
REMARK    1  A    between atoms: _1  and  _3
REMARK    2  A    between atoms: _3  and  _4
REMARK    3  A    between atoms: _3  and  _6
REMARK    4  A    between atoms: _6  and  _7
REMARK    5  A    between atoms: _7  and  _8
REMARK    6  A    between atoms: _8  and  _9
REMARK    7  A    between atoms: _18  and  _20
REMARK    8  A    between atoms: _20  and  _21
REMARK    9  A    between atoms: _20  and  _23
REMARK   10  A    between atoms: _23  and  _24
REMARK   11  A    between atoms: _27  and  _29
REMARK   12  A    between atoms: _29  and  _30
REMARK   13  A    between atoms: _29  and  _32
REMARK   14  A    between atoms: _32  and  _33
REMARK   15  A    between atoms: _36  and  _38
REMARK   16  A    between atoms: _38  and  _39
REMARK   17  A    between atoms: _38  and  _41
REMARK   18  A    between atoms: _41  and  _42
REMARK   19  A    between atoms: _45  and  _47
REMARK   20  A    between atoms: _47  and  _48
REMARK   21  A    between atoms: _47  and  _50
REMARK   22  A    between atoms: _50  and  _51
REMARK   23  A    between atoms: _54  and  _56
REMARK   24  A    between atoms: _56  and  _57
REMARK   25  A    between atoms: _56  and  _59
REMARK   26  A    between atoms: _59  and  _60
REMARK   27  A    between atoms: _63  and  _65
REMARK   28  A    between atoms: _65  and  _66
REMARK   29  A    between atoms: _68  and  _70
REMARK   30  A    between atoms: _70  and  _71
REMARK   31  A    between atoms: _74  and  _76
REMARK   32  A    between atoms: _76  and  _77
REMARK   33  A    between atoms: _76  and  _79
REMARK   34  A    between atoms: _79  and  _80
REMARK   35  A    between atoms: _83  and  _85
REMARK   36  A    between atoms: _85  and  _86
REMARK   37  A    between atoms: _85  and  _88
REMARK   38  A    between atoms: _88  and  _89
REMARK   39  A    between atoms: _92  and  _94
REMARK   40  A    between atoms: _94  and  _95
REMARK   41  A    between atoms: _94  and  _97
REMARK   42  A    between atoms: _97  and  _98
REMARK   43  A    between atoms: _101  and  _103
REMARK   44  A    between atoms: _103  and  _104
REMARK   45  A    between atoms: _103  and  _106
REMARK   46  A    between atoms: _109  and  _111
REMARK   47  A    between atoms: _111  and  _112
REMARK   48  A    between atoms: _111  and  _114
REMARK   49  A    between atoms: _114  and  _115
REMARK   50  A    between atoms: _115  and  _116
REMARK   51  A    between atoms: _118  and  _120
REMARK   52  A    between atoms: _120  and  _121
REMARK   53  A    between atoms: _120  and  _123
REMARK   54  A    between atoms: _123  and  _124
REMARK   55  A    between atoms: _127  and  _129
REMARK   56  A    between atoms: _129  and  _130
REMARK   57  A    between atoms: _132  and  _134
REMARK   58  A    between atoms: _134  and  _135
REMARK   59  A    between atoms: _137  and  _139
REMARK   60  A    between atoms: _139  and  _140
REMARK   61  A    between atoms: _139  and  _142
REMARK   62  A    between atoms: _142  and  _143
REMARK   63  A    between atoms: _146  and  _148
REMARK   64  A    between atoms: _148  and  _149
REMARK   65  A    between atoms: _151  and  _153
REMARK   66  A    between atoms: _153  and  _154
REMARK   67  A    between atoms: _156  and  _158
REMARK   68  A    between atoms: _158  and  _159
REMARK   69  A    between atoms: _158  and  _161
REMARK   70  A    between atoms: _161  and  _162
REMARK   71  A    between atoms: _168  and  _170
REMARK   72  A    between atoms: _170  and  _171
REMARK   73  A    between atoms: _170  and  _173
REMARK   74  A    between atoms: _173  and  _174
REMARK   75  A    between atoms: _177  and  _179
REMARK   76  A    between atoms: _179  and  _180
REMARK   77  A    between atoms: _179  and  _182
REMARK   78  A    between atoms: _185  and  _187
REMARK   79  A    between atoms: _187  and  _188
REMARK   80  A    between atoms: _187  and  _190
REMARK   81  A    between atoms: _190  and  _191
REMARK   82  A    between atoms: _194  and  _196
REMARK   83  A    between atoms: _196  and  _197
REMARK   84  A    between atoms: _196  and  _199
REMARK   85  A    between atoms: _199  and  _200
REMARK   86  A    between atoms: _204  and  _205
REMARK   87  A    between atoms: _210  and  _212
REMARK   88  A    between atoms: _212  and  _213
REMARK   89  A    between atoms: _212  and  _215
REMARK   90  A    between atoms: _218  and  _220
REMARK   91  A    between atoms: _220  and  _221
REMARK   92  A    between atoms: _220  and  _223
REMARK   93  A    between atoms: _223  and  _224
REMARK   94  A    between atoms: _229  and  _231
REMARK   95  A    between atoms: _231  and  _232
REMARK   96  A    between atoms: _231  and  _234
REMARK   97  A    between atoms: _234  and  _235
REMARK   98  A    between atoms: _238  and  _240
REMARK   99  A    between atoms: _240  and  _241
REMARK  100  A    between atoms: _240  and  _243
REMARK  101  A    between atoms: _243  and  _244
REMARK  102  A    between atoms: _247  and  _249
REMARK  103  A    between atoms: _249  and  _250
REMARK  104  A    between atoms: _252  and  _254
REMARK  105  A    between atoms: _254  and  _255
REMARK  106  A    between atoms: _254  and  _257
REMARK  107  A    between atoms: _257  and  _258
REMARK  108  A    between atoms: _258  and  _259
REMARK  109  A    between atoms: _259  and  _260
REMARK  110  A    between atoms: _269  and  _271
REMARK  111  A    between atoms: _271  and  _272
REMARK  112  A    between atoms: _271  and  _274
REMARK  113  A    between atoms: _274  and  _275
REMARK  114  A    between atoms: _280  and  _282
REMARK  115  A    between atoms: _282  and  _283
REMARK  116  A    between atoms: _282  and  _285
REMARK  117  A    between atoms: _285  and  _286
REMARK  118  A    between atoms: _286  and  _287
REMARK  119  A    between atoms: _287  and  _288
REMARK  120  A    between atoms: _297  and  _299
REMARK  121  A    between atoms: _299  and  _300
REMARK  122  A    between atoms: _299  and  _302
REMARK  123  A    between atoms: _302  and  _303
REMARK  124  A    between atoms: _306  and  _308
REMARK  125  A    between atoms: _308  and  _309
REMARK  126  A    between atoms: _308  and  _311
REMARK  127  A    between atoms: _311  and  _312
REMARK  128  A    between atoms: _315  and  _317
REMARK  129  A    between atoms: _317  and  _318
REMARK  130  A    between atoms: _317  and  _320
REMARK  131  A    between atoms: _320  and  _321
REMARK  132  A    between atoms: _324  and  _326
REMARK  133  A    between atoms: _326  and  _327
REMARK  134  A    between atoms: _326  and  _329
REMARK  135  A    between atoms: _329  and  _330
REMARK  136  A    between atoms: _333  and  _335
REMARK  137  A    between atoms: _335  and  _336
REMARK  138  A    between atoms: _338  and  _340
REMARK  139  A    between atoms: _340  and  _341
REMARK  140  A    between atoms: _344  and  _346
REMARK  141  A    between atoms: _346  and  _347
REMARK  142  A    between atoms: _346  and  _349
REMARK  143  A    between atoms: _349  and  _350
REMARK  144  A    between atoms: _353  and  _355
REMARK  145  A    between atoms: _355  and  _356
REMARK  146  A    between atoms: _355  and  _358
REMARK  147  A    between atoms: _358  and  _359
REMARK  148  A    between atoms: _362  and  _364
REMARK  149  A    between atoms: _364  and  _365
REMARK  150  A    between atoms: _364  and  _367
REMARK  151  A    between atoms: _367  and  _368
REMARK  152  A    between atoms: _371  and  _373
REMARK  153  A    between atoms: _373  and  _374
REMARK  154  A    between atoms: _373  and  _376
REMARK  155  A    between atoms: _379  and  _381
REMARK  156  A    between atoms: _381  and  _382
REMARK  157  A    between atoms: _381  and  _384
REMARK  158  A    between atoms: _384  and  _385
REMARK  159  A    between atoms: _388  and  _390
REMARK  160  A    between atoms: _390  and  _391
REMARK  161  A    between atoms: _390  and  _393
REMARK  162  A    between atoms: _393  and  _394
REMARK  163  A    between atoms: _394  and  _395
REMARK  164  A    between atoms: _395  and  _396
REMARK  165  A    between atoms: _396  and  _397
REMARK  166  A    between atoms: _401  and  _403
REMARK  167  A    between atoms: _403  and  _404
REMARK  168  A    between atoms: _403  and  _406
REMARK  169  A    between atoms: _406  and  _407
REMARK  170  A    between atoms: _407  and  _408
REMARK  171  A    between atoms: _410  and  _412
REMARK  172  A    between atoms: _412  and  _413
REMARK  173  A    between atoms: _412  and  _415
REMARK  174  A    between atoms: _415  and  _416
REMARK  175  A    between atoms: _419  and  _421
REMARK  176  A    between atoms: _421  and  _422
REMARK  177  A    between atoms: _424  and  _426
REMARK  178  A    between atoms: _426  and  _427
REMARK  179  A    between atoms: _429  and  _431
REMARK  180  A    between atoms: _431  and  _432
REMARK  181  A    between atoms: _431  and  _434
REMARK  182  A    between atoms: _434  and  _435
REMARK  183  A    between atoms: _438  and  _440
REMARK  184  A    between atoms: _440  and  _441
REMARK  185  A    between atoms: _443  and  _445
REMARK  186  A    between atoms: _445  and  _446
REMARK  187  A    between atoms: _448  and  _450
REMARK  188  A    between atoms: _450  and  _451
REMARK  189  A    between atoms: _450  and  _453
REMARK  190  A    between atoms: _453  and  _454
REMARK  191  A    between atoms: _457  and  _459
REMARK  192  A    between atoms: _459  and  _460
REMARK  193  A    between atoms: _459  and  _462
REMARK  194  A    between atoms: _465  and  _467
REMARK  195  A    between atoms: _467  and  _468
REMARK  196  A    between atoms: _467  and  _470
REMARK  197  A    between atoms: _470  and  _471
REMARK  198  A    between atoms: _474  and  _476
REMARK  199  A    between atoms: _476  and  _477
REMARK  200  A    between atoms: _476  and  _479
REMARK  201  A    between atoms: _479  and  _480
REMARK  202  A    between atoms: _484  and  _485
REMARK  203  A    between atoms: _490  and  _492
REMARK  204  A    between atoms: _492  and  _493
REMARK  205  A    between atoms: _492  and  _495
REMARK  206  A    between atoms: _498  and  _500
REMARK  207  A    between atoms: _500  and  _501
REMARK  208  A    between atoms: _500  and  _503
REMARK  209  A    between atoms: _503  and  _504
REMARK  210  A    between atoms: _509  and  _511
REMARK  211  A    between atoms: _511  and  _512
REMARK  212  A    between atoms: _511  and  _514
REMARK  213  A    between atoms: _514  and  _515
REMARK  214  A    between atoms: _518  and  _520
REMARK  215  A    between atoms: _520  and  _521
REMARK  216  A    between atoms: _520  and  _523
REMARK  217  A    between atoms: _523  and  _524
REMARK  218  A    between atoms: _527  and  _529
REMARK  219  A    between atoms: _529  and  _530
REMARK  220  A    between atoms: _532  and  _534
REMARK  221  A    between atoms: _534  and  _535
REMARK  222  A    between atoms: _534  and  _537
REMARK  223  A    between atoms: _537  and  _538
REMARK  224  A    between atoms: _538  and  _539
REMARK  225  A    between atoms: _539  and  _540
REMARK  226  A    between atoms: _549  and  _551
REMARK  227  A    between atoms: _551  and  _552
REMARK  228  A    between atoms: _551  and  _554
REMARK  229  A    between atoms: _554  and  _555
REMARK                            x       y       z     vdW  Elec       q    Type
REMARK                         _______ _______ _______ _____ _____    ______ ____
ROOT
ATOM      1  O   HOH     1      21.207  25.920   6.816  0.00  0.00    +0.000 OA
ENDROOT
TORSDOF 0
REMARK  Name = ../refined-set-2016/2avo/2avo_pocket.pdb
REMARK  229 active torsions:
REMARK  status: ('A' for Active; 'I' for Inactive)
REMARK    1  A    between atoms: _1  and  _3
REMARK    2  A    between atoms: _3  and  _4
REMARK    3  A    between atoms: _3  and  _6
REMARK    4  A    between atoms: _6  and  _7
REMARK    5  A    between atoms: _7  and  _8
REMARK    6  A    between atoms: _8  and  _9
REMARK    7  A    between atoms: _18  and  _20
REMARK    8  A    between atoms: _20  and  _21
REMARK    9  A    between atoms: _20  and  _23
REMARK   10  A    between atoms: _23  and  _24
REMARK   11  A    between atoms: _27  and  _29
REMARK   12  A    between atoms: _29  and  _30
REMARK   13  A    between atoms: _29  and  _32
REMARK   14  A    between atoms: _32  and  _33
REMARK   15  A    between atoms: _36  and  _38
REMARK   16  A    between atoms: _38  and  _39
REMARK   17  A    between atoms: _38  and  _41
REMARK   18  A    between atoms: _41  and  _42
REMARK   19  A    between atoms: _45  and  _47
REMARK   20  A    between atoms: _47  and  _48
REMARK   21  A    between atoms: _47  and  _50
REMARK   22  A    between atoms: _50  and  _51
REMARK   23  A    between atoms: _54  and  _56
REMARK   24  A    between atoms: _56  and  _57
REMARK   25  A    between atoms: _56  and  _59
REMARK   26  A    between atoms: _59  and  _60
REMARK   27  A    between atoms: _63  and  _65
REMARK   28  A    between atoms: _65  and  _66
REMARK   29  A    between atoms: _68  and  _70
REMARK   30  A    between atoms: _70  and  _71
REMARK   31  A    between atoms: _74  and  _76
REMARK   32  A    between atoms: _76  and  _77
REMARK   33  A    between atoms: _76  and  _79
REMARK   34  A    between atoms: _79  and  _80
REMARK   35  A    between atoms: _83  and  _85
REMARK   36  A    between atoms: _85  and  _86
REMARK   37  A    between atoms: _85  and  _88
REMARK   38  A    between atoms: _88  and  _89
REMARK   39  A    between atoms: _92  and  _94
REMARK   40  A    between atoms: _94  and  _95
REMARK   41  A    between atoms: _94  and  _97
REMARK   42  A    between atoms: _97  and  _98
REMARK   43  A    between atoms: _101  and  _103
REMARK   44  A    between atoms: _103  and  _104
REMARK   45  A    between atoms: _103  and  _106
REMARK   46  A    between atoms: _109  and  _111
REMARK   47  A    between atoms: _111  and  _112
REMARK   48  A    between atoms: _111  and  _114
REMARK   49  A    between atoms: _114  and  _115
REMARK   50  A    between atoms: _115  and  _116
REMARK   51  A    between atoms: _118  and  _120
REMARK   52  A    between atoms: _120  and  _121
REMARK   53  A    between atoms: _120  and  _123
REMARK   54  A    between atoms: _123  and  _124
REMARK   55  A    between atoms: _127  and  _129
REMARK   56  A    between atoms: _129  and  _130
REMARK   57  A    between atoms: _132  and  _134
REMARK   58  A    between atoms: _134  and  _135
REMARK   59  A    between atoms: _137  and  _139
REMARK   60  A    between atoms: _139  and  _140
REMARK   61  A    between atoms: _139  and  _142
REMARK   62  A    between atoms: _142  and  _143
REMARK   63  A    between atoms: _146  and  _148
REMARK   64  A    between atoms: _148  and  _149
REMARK   65  A    between atoms: _151  and  _153
REMARK   66  A    between atoms: _153  and  _154
REMARK   67  A    between atoms: _156  and  _158
REMARK   68  A    between atoms: _158  and  _159
REMARK   69  A    between atoms: _158  and  _161
REMARK   70  A    between atoms: _161  and  _162
REMARK   71  A    between atoms: _168  and  _170
REMARK   72  A    between atoms: _170  and  _171
REMARK   73  A    between atoms: _170  and  _173
REMARK   74  A    between atoms: _173  and  _174
REMARK   75  A    between atoms: _177  and  _179
REMARK   76  A    between atoms: _179  and  _180
REMARK   77  A    between atoms: _179  and  _182
REMARK   78  A    between atoms: _185  and  _187
REMARK   79  A    between atoms: _187  and  _188
REMARK   80  A    between atoms: _187  and  _190
REMARK   81  A    between atoms: _190  and  _191
REMARK   82  A    between atoms: _194  and  _196
REMARK   83  A    between atoms: _196  and  _197
REMARK   84  A    between atoms: _196  and  _199
REMARK   85  A    between atoms: _199  and  _200
REMARK   86  A    between atoms: _204  and  _205
REMARK   87  A    between atoms: _210  and  _212
REMARK   88  A    between atoms: _212  and  _213
REMARK   89  A    between atoms: _212  and  _215
REMARK   90  A    between atoms: _218  and  _220
REMARK   91  A    between atoms: _220  and  _221
REMARK   92  A    between atoms: _220  and  _223
REMARK   93  A    between atoms: _223  and  _224
REMARK   94  A    between atoms: _229  and  _231
REMARK   95  A    between atoms: _231  and  _232
REMARK   96  A    between atoms: _231  and  _234
REMARK   97  A    between atoms: _234  and  _235
REMARK   98  A    between atoms: _238  and  _240
REMARK   99  A    between atoms: _240  and  _241
REMARK  100  A    between atoms: _240  and  _243
REMARK  101  A    between atoms: _243  and  _244
REMARK  102  A    between atoms: _247  and  _249
REMARK  103  A    between atoms: _249  and  _250
REMARK  104  A    between atoms: _252  and  _254
REMARK  105  A    between atoms: _254  and  _255
REMARK  106  A    between atoms: _254  and  _257
REMARK  107  A    between atoms: _257  and  _258
REMARK  108  A    between atoms: _258  and  _259
REMARK  109  A    between atoms: _259  and  _260
REMARK  110  A    between atoms: _269  and  _271
REMARK  111  A    between atoms: _271  and  _272
REMARK  112  A    between atoms: _271  and  _274
REMARK  113  A    between atoms: _274  and  _275
REMARK  114  A    between atoms: _280  and  _282
REMARK  115  A    between atoms: _282  and  _283
REMARK  116  A    between atoms: _282  and  _285
REMARK  117  A    between atoms: _285  and  _286
REMARK  118  A    between atoms: _286  and  _287
REMARK  119  A    between atoms: _287  and  _288
REMARK  120  A    between atoms: _297  and  _299
REMARK  121  A    between atoms: _299  and  _300
REMARK  122  A    between atoms: _299  and  _302
REMARK  123  A    between atoms: _302  and  _303
REMARK  124  A    between atoms: _306  and  _308
REMARK  125  A    between atoms: _308  and  _309
REMARK  126  A    between atoms: _308  and  _311
REMARK  127  A    between atoms: _311  and  _312
REMARK  128  A    between atoms: _315  and  _317
REMARK  129  A    between atoms: _317  and  _318
REMARK  130  A    between atoms: _317  and  _320
REMARK  131  A    between atoms: _320  and  _321
REMARK  132  A    between atoms: _324  and  _326
REMARK  133  A    between atoms: _326  and  _327
REMARK  134  A    between atoms: _326  and  _329
REMARK  135  A    between atoms: _329  and  _330
REMARK  136  A    between atoms: _333  and  _335
REMARK  137  A    between atoms: _335  and  _336
REMARK  138  A    between atoms: _338  and  _340
REMARK  139  A    between atoms: _340  and  _341
REMARK  140  A    between atoms: _344  and  _346
REMARK  141  A    between atoms: _346  and  _347
REMARK  142  A    between atoms: _346  and  _349
REMARK  143  A    between atoms: _349  and  _350
REMARK  144  A    between atoms: _353  and  _355
REMARK  145  A    between atoms: _355  and  _356
REMARK  146  A    between atoms: _355  and  _358
REMARK  147  A    between atoms: _358  and  _359
REMARK  148  A    between atoms: _362  and  _364
REMARK  149  A    between atoms: _364  and  _365
REMARK  150  A    between atoms: _364  and  _367
REMARK  151  A    between atoms: _367  and  _368
REMARK  152  A    between atoms: _371  and  _373
REMARK  153  A    between atoms: _373  and  _374
REMARK  154  A    between atoms: _373  and  _376
REMARK  155  A    between atoms: _379  and  _381
REMARK  156  A    between atoms: _381  and  _382
REMARK  157  A    between atoms: _381  and  _384
REMARK  158  A    between atoms: _384  and  _385
REMARK  159  A    between atoms: _388  and  _390
REMARK  160  A    between atoms: _390  and  _391
REMARK  161  A    between atoms: _390  and  _393
REMARK  162  A    between atoms: _393  and  _394
REMARK  163  A    between atoms: _394  and  _395
REMARK  164  A    between atoms: _395  and  _396
REMARK  165  A    between atoms: _396  and  _397
REMARK  166  A    between atoms: _401  and  _403
REMARK  167  A    between atoms: _403  and  _404
REMARK  168  A    between atoms: _403  and  _406
REMARK  169  A    between atoms: _406  and  _407
REMARK  170  A    between atoms: _407  and  _408
REMARK  171  A    between atoms: _410  and  _412
REMARK  172  A    between atoms: _412  and  _413
REMARK  173  A    between atoms: _412  and  _415
REMARK  174  A    between atoms: _415  and  _416
REMARK  175  A    between atoms: _419  and  _421
REMARK  176  A    between atoms: _421  and  _422
REMARK  177  A    between atoms: _424  and  _426
REMARK  178  A    between atoms: _426  and  _427
REMARK  179  A    between atoms: _429  and  _431
REMARK  180  A    between atoms: _431  and  _432
REMARK  181  A    between atoms: _431  and  _434
REMARK  182  A    between atoms: _434  and  _435
REMARK  183  A    between atoms: _438  and  _440
REMARK  184  A    between atoms: _440  and  _441
REMARK  185  A    between atoms: _443  and  _445
REMARK  186  A    between atoms: _445  and  _446
REMARK  187  A    between atoms: _448  and  _450
REMARK  188  A    between atoms: _450  and  _451
REMARK  189  A    between atoms: _450  and  _453
REMARK  190  A    between atoms: _453  and  _454
REMARK  191  A    between atoms: _457  and  _459
REMARK  192  A    between atoms: _459  and  _460
REMARK  193  A    between atoms: _459  and  _462
REMARK  194  A    between atoms: _465  and  _467
REMARK  195  A    between atoms: _467  and  _468
REMARK  196  A    between atoms: _467  and  _470
REMARK  197  A    between atoms: _470  and  _471
REMARK  198  A    between atoms: _474  and  _476
REMARK  199  A    between atoms: _476  and  _477
REMARK  200  A    between atoms: _476  and  _479
REMARK  201  A    between atoms: _479  and  _480
REMARK  202  A    between atoms: _484  and  _485
REMARK  203  A    between atoms: _490  and  _492
REMARK  204  A    between atoms: _492  and  _493
REMARK  205  A    between atoms: _492  and  _495
REMARK  206  A    between atoms: _498  and  _500
REMARK  207  A    between atoms: _500  and  _501
REMARK  208  A    between atoms: _500  and  _503
REMARK  209  A    between atoms: _503  and  _504
REMARK  210  A    between atoms: _509  and  _511
REMARK  211  A    between atoms: _511  and  _512
REMARK  212  A    between atoms: _511  and  _514
REMARK  213  A    between atoms: _514  and  _515
REMARK  214  A    between atoms: _518  and  _520
REMARK  215  A    between atoms: _520  and  _521
REMARK  216  A    between atoms: _520  and  _523
REMARK  217  A    between atoms: _523  and  _524
REMARK  218  A    between atoms: _527  and  _529
REMARK  219  A    between atoms: _529  and  _530
REMARK  220  A    between atoms: _532  and  _534
REMARK  221  A    between atoms: _534  and  _535
REMARK  222  A    between atoms: _534  and  _537
REMARK  223  A    between atoms: _537  and  _538
REMARK  224  A    between atoms: _538  and  _539
REMARK  225  A    between atoms: _539  and  _540
REMARK  226  A    between atoms: _549  and  _551
REMARK  227  A    between atoms: _551  and  _552
REMARK  228  A    between atoms: _551  and  _554
REMARK  229  A    between atoms: _554  and  _555
REMARK                            x       y       z     vdW  Elec       q    Type
REMARK                         _______ _______ _______ _____ _____    ______ ____
ROOT
ATOM      1  O   HOH     1      26.797  18.945  12.945  0.00  0.00    +0.000 OA
ENDROOT
TORSDOF 0
REMARK  Name = ../refined-set-2016/2avo/2avo_pocket.pdb
REMARK  229 active torsions:
REMARK  status: ('A' for Active; 'I' for Inactive)
REMARK    1  A    between atoms: _1  and  _3
REMARK    2  A    between atoms: _3  and  _4
REMARK    3  A    between atoms: _3  and  _6
REMARK    4  A    between atoms: _6  and  _7
REMARK    5  A    between atoms: _7  and  _8
REMARK    6  A    between atoms: _8  and  _9
REMARK    7  A    between atoms: _18  and  _20
REMARK    8  A    between atoms: _20  and  _21
REMARK    9  A    between atoms: _20  and  _23
REMARK   10  A    between atoms: _23  and  _24
REMARK   11  A    between atoms: _27  and  _29
REMARK   12  A    between atoms: _29  and  _30
REMARK   13  A    between atoms: _29  and  _32
REMARK   14  A    between atoms: _32  and  _33
REMARK   15  A    between atoms: _36  and  _38
REMARK   16  A    between atoms: _38  and  _39
REMARK   17  A    between atoms: _38  and  _41
REMARK   18  A    between atoms: _41  and  _42
REMARK   19  A    between atoms: _45  and  _47
REMARK   20  A    between atoms: _47  and  _48
REMARK   21  A    between atoms: _47  and  _50
REMARK   22  A    between atoms: _50  and  _51
REMARK   23  A    between atoms: _54  and  _56
REMARK   24  A    between atoms: _56  and  _57
REMARK   25  A    between atoms: _56  and  _59
REMARK   26  A    between atoms: _59  and  _60
REMARK   27  A    between atoms: _63  and  _65
REMARK   28  A    between atoms: _65  and  _66
REMARK   29  A    between atoms: _68  and  _70
REMARK   30  A    between atoms: _70  and  _71
REMARK   31  A    between atoms: _74  and  _76
REMARK   32  A    between atoms: _76  and  _77
REMARK   33  A    between atoms: _76  and  _79
REMARK   34  A    between atoms: _79  and  _80
REMARK   35  A    between atoms: _83  and  _85
REMARK   36  A    between atoms: _85  and  _86
REMARK   37  A    between atoms: _85  and  _88
REMARK   38  A    between atoms: _88  and  _89
REMARK   39  A    between atoms: _92  and  _94
REMARK   40  A    between atoms: _94  and  _95
REMARK   41  A    between atoms: _94  and  _97
REMARK   42  A    between atoms: _97  and  _98
REMARK   43  A    between atoms: _101  and  _103
REMARK   44  A    between atoms: _103  and  _104
REMARK   45  A    between atoms: _103  and  _106
REMARK   46  A    between atoms: _109  and  _111
REMARK   47  A    between atoms: _111  and  _112
REMARK   48  A    between atoms: _111  and  _114
REMARK   49  A    between atoms: _114  and  _115
REMARK   50  A    between atoms: _115  and  _116
REMARK   51  A    between atoms: _118  and  _120
REMARK   52  A    between atoms: _120  and  _121
REMARK   53  A    between atoms: _120  and  _123
REMARK   54  A    between atoms: _123  and  _124
REMARK   55  A    between atoms: _127  and  _129
REMARK   56  A    between atoms: _129  and  _130
REMARK   57  A    between atoms: _132  and  _134
REMARK   58  A    between atoms: _134  and  _135
REMARK   59  A    between atoms: _137  and  _139
REMARK   60  A    between atoms: _139  and  _140
REMARK   61  A    between atoms: _139  and  _142
REMARK   62  A    between atoms: _142  and  _143
REMARK   63  A    between atoms: _146  and  _148
REMARK   64  A    between atoms: _148  and  _149
REMARK   65  A    between atoms: _151  and  _153
REMARK   66  A    between atoms: _153  and  _154
REMARK   67  A    between atoms: _156  and  _158
REMARK   68  A    between atoms: _158  and  _159
REMARK   69  A    between atoms: _158  and  _161
REMARK   70  A    between atoms: _161  and  _162
REMARK   71  A    between atoms: _168  and  _170
REMARK   72  A    between atoms: _170  and  _171
REMARK   73  A    between atoms: _170  and  _173
REMARK   74  A    between atoms: _173  and  _174
REMARK   75  A    between atoms: _177  and  _179
REMARK   76  A    between atoms: _179  and  _180
REMARK   77  A    between atoms: _179  and  _182
REMARK   78  A    between atoms: _185  and  _187
REMARK   79  A    between atoms: _187  and  _188
REMARK   80  A    between atoms: _187  and  _190
REMARK   81  A    between atoms: _190  and  _191
REMARK   82  A    between atoms: _194  and  _196
REMARK   83  A    between atoms: _196  and  _197
REMARK   84  A    between atoms: _196  and  _199
REMARK   85  A    between atoms: _199  and  _200
REMARK   86  A    between atoms: _204  and  _205
REMARK   87  A    between atoms: _210  and  _212
REMARK   88  A    between atoms: _212  and  _213
REMARK   89  A    between atoms: _212  and  _215
REMARK   90  A    between atoms: _218  and  _220
REMARK   91  A    between atoms: _220  and  _221
REMARK   92  A    between atoms: _220  and  _223
REMARK   93  A    between atoms: _223  and  _224
REMARK   94  A    between atoms: _229  and  _231
REMARK   95  A    between atoms: _231  and  _232
REMARK   96  A    between atoms: _231  and  _234
REMARK   97  A    between atoms: _234  and  _235
REMARK   98  A    between atoms: _238  and  _240
REMARK   99  A    between atoms: _240  and  _241
REMARK  100  A    between atoms: _240  and  _243
REMARK  101  A    between atoms: _243  and  _244
REMARK  102  A    between atoms: _247  and  _249
REMARK  103  A    between atoms: _249  and  _250
REMARK  104  A    between atoms: _252  and  _254
REMARK  105  A    between atoms: _254  and  _255
REMARK  106  A    between atoms: _254  and  _257
REMARK  107  A    between atoms: _257  and  _258
REMARK  108  A    between atoms: _258  and  _259
REMARK  109  A    between atoms: _259  and  _260
REMARK  110  A    between atoms: _269  and  _271
REMARK  111  A    between atoms: _271  and  _272
REMARK  112  A    between atoms: _271  and  _274
REMARK  113  A    between atoms: _274  and  _275
REMARK  114  A    between atoms: _280  and  _282
REMARK  115  A    between atoms: _282  and  _283
REMARK  116  A    between atoms: _282  and  _285
REMARK  117  A    between atoms: _285  and  _286
REMARK  118  A    between atoms: _286  and  _287
REMARK  119  A    between atoms: _287  and  _288
REMARK  120  A    between atoms: _297  and  _299
REMARK  121  A    between atoms: _299  and  _300
REMARK  122  A    between atoms: _299  and  _302
REMARK  123  A    between atoms: _302  and  _303
REMARK  124  A    between atoms: _306  and  _308
REMARK  125  A    between atoms: _308  and  _309
REMARK  126  A    between atoms: _308  and  _311
REMARK  127  A    between atoms: _311  and  _312
REMARK  128  A    between atoms: _315  and  _317
REMARK  129  A    between atoms: _317  and  _318
REMARK  130  A    between atoms: _317  and  _320
REMARK  131  A    between atoms: _320  and  _321
REMARK  132  A    between atoms: _324  and  _326
REMARK  133  A    between atoms: _326  and  _327
REMARK  134  A    between atoms: _326  and  _329
REMARK  135  A    between atoms: _329  and  _330
REMARK  136  A    between atoms: _333  and  _335
REMARK  137  A    between atoms: _335  and  _336
REMARK  138  A    between atoms: _338  and  _340
REMARK  139  A    between atoms: _340  and  _341
REMARK  140  A    between atoms: _344  and  _346
REMARK  141  A    between atoms: _346  and  _347
REMARK  142  A    between atoms: _346  and  _349
REMARK  143  A    between atoms: _349  and  _350
REMARK  144  A    between atoms: _353  and  _355
REMARK  145  A    between atoms: _355  and  _356
REMARK  146  A    between atoms: _355  and  _358
REMARK  147  A    between atoms: _358  and  _359
REMARK  148  A    between atoms: _362  and  _364
REMARK  149  A    between atoms: _364  and  _365
REMARK  150  A    between atoms: _364  and  _367
REMARK  151  A    between atoms: _367  and  _368
REMARK  152  A    between atoms: _371  and  _373
REMARK  153  A    between atoms: _373  and  _374
REMARK  154  A    between atoms: _373  and  _376
REMARK  155  A    between atoms: _379  and  _381
REMARK  156  A    between atoms: _381  and  _382
REMARK  157  A    between atoms: _381  and  _384
REMARK  158  A    between atoms: _384  and  _385
REMARK  159  A    between atoms: _388  and  _390
REMARK  160  A    between atoms: _390  and  _391
REMARK  161  A    between atoms: _390  and  _393
REMARK  162  A    between atoms: _393  and  _394
REMARK  163  A    between atoms: _394  and  _395
REMARK  164  A    between atoms: _395  and  _396
REMARK  165  A    between atoms: _396  and  _397
REMARK  166  A    between atoms: _401  and  _403
REMARK  167  A    between atoms: _403  and  _404
REMARK  168  A    between atoms: _403  and  _406
REMARK  169  A    between atoms: _406  and  _407
REMARK  170  A    between atoms: _407  and  _408
REMARK  171  A    between atoms: _410  and  _412
REMARK  172  A    between atoms: _412  and  _413
REMARK  173  A    between atoms: _412  and  _415
REMARK  174  A    between atoms: _415  and  _416
REMARK  175  A    between atoms: _419  and  _421
REMARK  176  A    between atoms: _421  and  _422
REMARK  177  A    between atoms: _424  and  _426
REMARK  178  A    between atoms: _426  and  _427
REMARK  179  A    between atoms: _429  and  _431
REMARK  180  A    between atoms: _431  and  _432
REMARK  181  A    between atoms: _431  and  _434
REMARK  182  A    between atoms: _434  and  _435
REMARK  183  A    between atoms: _438  and  _440
REMARK  184  A    between atoms: _440  and  _441
REMARK  185  A    between atoms: _443  and  _445
REMARK  186  A    between atoms: _445  and  _446
REMARK  187  A    between atoms: _448  and  _450
REMARK  188  A    between atoms: _450  and  _451
REMARK  189  A    between atoms: _450  and  _453
REMARK  190  A    between atoms: _453  and  _454
REMARK  191  A    between atoms: _457  and  _459
REMARK  192  A    between atoms: _459  and  _460
REMARK  193  A    between atoms: _459  and  _462
REMARK  194  A    between atoms: _465  and  _467
REMARK  195  A    between atoms: _467  and  _468
REMARK  196  A    between atoms: _467  and  _470
REMARK  197  A    between atoms: _470  and  _471
REMARK  198  A    between atoms: _474  and  _476
REMARK  199  A    between atoms: _476  and  _477
REMARK  200  A    between atoms: _476  and  _479
REMARK  201  A    between atoms: _479  and  _480
REMARK  202  A    between atoms: _484  and  _485
REMARK  203  A    between atoms: _490  and  _492
REMARK  204  A    between atoms: _492  and  _493
REMARK  205  A    between atoms: _492  and  _495
REMARK  206  A    between atoms: _498  and  _500
REMARK  207  A    between atoms: _500  and  _501
REMARK  208  A    between atoms: _500  and  _503
REMARK  209  A    between atoms: _503  and  _504
REMARK  210  A    between atoms: _509  and  _511
REMARK  211  A    between atoms: _511  and  _512
REMARK  212  A    between atoms: _511  and  _514
REMARK  213  A    between atoms: _514  and  _515
REMARK  214  A    between atoms: _518  and  _520
REMARK  215  A    between atoms: _520  and  _521
REMARK  216  A    between atoms: _520  and  _523
REMARK  217  A    between atoms: _523  and  _524
REMARK  218  A    between atoms: _527  and  _529
REMARK  219  A    between atoms: _529  and  _530
REMARK  220  A    between atoms: _532  and  _534
REMARK  221  A    between atoms: _534  and  _535
REMARK  222  A    between atoms: _534  and  _537
REMARK  223  A    between atoms: _537  and  _538
REMARK  224  A    between atoms: _538  and  _539
REMARK  225  A    between atoms: _539  and  _540
REMARK  226  A    between atoms: _549  and  _551
REMARK  227  A    between atoms: _551  and  _552
REMARK  228  A    between atoms: _551  and  _554
REMARK  229  A    between atoms: _554  and  _555
REMARK                            x       y       z     vdW  Elec       q    Type
REMARK                         _______ _______ _______ _____ _____    ______ ____
ROOT
ATOM      1  O   HOH     1      31.107  21.688   8.233  0.00  0.00    +0.000 OA
ENDROOT
TORSDOF 0
REMARK  Name = ../refined-set-2016/2avo/2avo_pocket.pdb
REMARK  229 active torsions:
REMARK  status: ('A' for Active; 'I' for Inactive)
REMARK    1  A    between atoms: _1  and  _3
REMARK    2  A    between atoms: _3  and  _4
REMARK    3  A    between atoms: _3  and  _6
REMARK    4  A    between atoms: _6  and  _7
REMARK    5  A    between atoms: _7  and  _8
REMARK    6  A    between atoms: _8  and  _9
REMARK    7  A    between atoms: _18  and  _20
REMARK    8  A    between atoms: _20  and  _21
REMARK    9  A    between atoms: _20  and  _23
REMARK   10  A    between atoms: _23  and  _24
REMARK   11  A    between atoms: _27  and  _29
REMARK   12  A    between atoms: _29  and  _30
REMARK   13  A    between atoms: _29  and  _32
REMARK   14  A    between atoms: _32  and  _33
REMARK   15  A    between atoms: _36  and  _38
REMARK   16  A    between atoms: _38  and  _39
REMARK   17  A    between atoms: _38  and  _41
REMARK   18  A    between atoms: _41  and  _42
REMARK   19  A    between atoms: _45  and  _47
REMARK   20  A    between atoms: _47  and  _48
REMARK   21  A    between atoms: _47  and  _50
REMARK   22  A    between atoms: _50  and  _51
REMARK   23  A    between atoms: _54  and  _56
REMARK   24  A    between atoms: _56  and  _57
REMARK   25  A    between atoms: _56  and  _59
REMARK   26  A    between atoms: _59  and  _60
REMARK   27  A    between atoms: _63  and  _65
REMARK   28  A    between atoms: _65  and  _66
REMARK   29  A    between atoms: _68  and  _70
REMARK   30  A    between atoms: _70  and  _71
REMARK   31  A    between atoms: _74  and  _76
REMARK   32  A    between atoms: _76  and  _77
REMARK   33  A    between atoms: _76  and  _79
REMARK   34  A    between atoms: _79  and  _80
REMARK   35  A    between atoms: _83  and  _85
REMARK   36  A    between atoms: _85  and  _86
REMARK   37  A    between atoms: _85  and  _88
REMARK   38  A    between atoms: _88  and  _89
REMARK   39  A    between atoms: _92  and  _94
REMARK   40  A    between atoms: _94  and  _95
REMARK   41  A    between atoms: _94  and  _97
REMARK   42  A    between atoms: _97  and  _98
REMARK   43  A    between atoms: _101  and  _103
REMARK   44  A    between atoms: _103  and  _104
REMARK   45  A    between atoms: _103  and  _106
REMARK   46  A    between atoms: _109  and  _111
REMARK   47  A    between atoms: _111  and  _112
REMARK   48  A    between atoms: _111  and  _114
REMARK   49  A    between atoms: _114  and  _115
REMARK   50  A    between atoms: _115  and  _116
REMARK   51  A    between atoms: _118  and  _120
REMARK   52  A    between atoms: _120  and  _121
REMARK   53  A    between atoms: _120  and  _123
REMARK   54  A    between atoms: _123  and  _124
REMARK   55  A    between atoms: _127  and  _129
REMARK   56  A    between atoms: _129  and  _130
REMARK   57  A    between atoms: _132  and  _134
REMARK   58  A    between atoms: _134  and  _135
REMARK   59  A    between atoms: _137  and  _139
REMARK   60  A    between atoms: _139  and  _140
REMARK   61  A    between atoms: _139  and  _142
REMARK   62  A    between atoms: _142  and  _143
REMARK   63  A    between atoms: _146  and  _148
REMARK   64  A    between atoms: _148  and  _149
REMARK   65  A    between atoms: _151  and  _153
REMARK   66  A    between atoms: _153  and  _154
REMARK   67  A    between atoms: _156  and  _158
REMARK   68  A    between atoms: _158  and  _159
REMARK   69  A    between atoms: _158  and  _161
REMARK   70  A    between atoms: _161  and  _162
REMARK   71  A    between atoms: _168  and  _170
REMARK   72  A    between atoms: _170  and  _171
REMARK   73  A    between atoms: _170  and  _173
REMARK   74  A    between atoms: _173  and  _174
REMARK   75  A    between atoms: _177  and  _179
REMARK   76  A    between atoms: _179  and  _180
REMARK   77  A    between atoms: _179  and  _182
REMARK   78  A    between atoms: _185  and  _187
REMARK   79  A    between atoms: _187  and  _188
REMARK   80  A    between atoms: _187  and  _190
REMARK   81  A    between atoms: _190  and  _191
REMARK   82  A    between atoms: _194  and  _196
REMARK   83  A    between atoms: _196  and  _197
REMARK   84  A    between atoms: _196  and  _199
REMARK   85  A    between atoms: _199  and  _200
REMARK   86  A    between atoms: _204  and  _205
REMARK   87  A    between atoms: _210  and  _212
REMARK   88  A    between atoms: _212  and  _213
REMARK   89  A    between atoms: _212  and  _215
REMARK   90  A    between atoms: _218  and  _220
REMARK   91  A    between atoms: _220  and  _221
REMARK   92  A    between atoms: _220  and  _223
REMARK   93  A    between atoms: _223  and  _224
REMARK   94  A    between atoms: _229  and  _231
REMARK   95  A    between atoms: _231  and  _232
REMARK   96  A    between atoms: _231  and  _234
REMARK   97  A    between atoms: _234  and  _235
REMARK   98  A    between atoms: _238  and  _240
REMARK   99  A    between atoms: _240  and  _241
REMARK  100  A    between atoms: _240  and  _243
REMARK  101  A    between atoms: _243  and  _244
REMARK  102  A    between atoms: _247  and  _249
REMARK  103  A    between atoms: _249  and  _250
REMARK  104  A    between atoms: _252  and  _254
REMARK  105  A    between atoms: _254  and  _255
REMARK  106  A    between atoms: _254  and  _257
REMARK  107  A    between atoms: _257  and  _258
REMARK  108  A    between atoms: _258  and  _259
REMARK  109  A    between atoms: _259  and  _260
REMARK  110  A    between atoms: _269  and  _271
REMARK  111  A    between atoms: _271  and  _272
REMARK  112  A    between atoms: _271  and  _274
REMARK  113  A    between atoms: _274  and  _275
REMARK  114  A    between atoms: _280  and  _282
REMARK  115  A    between atoms: _282  and  _283
REMARK  116  A    between atoms: _282  and  _285
REMARK  117  A    between atoms: _285  and  _286
REMARK  118  A    between atoms: _286  and  _287
REMARK  119  A    between atoms: _287  and  _288
REMARK  120  A    between atoms: _297  and  _299
REMARK  121  A    between atoms: _299  and  _300
REMARK  122  A    between atoms: _299  and  _302
REMARK  123  A    between atoms: _302  and  _303
REMARK  124  A    between atoms: _306  and  _308
REMARK  125  A    between atoms: _308  and  _309
REMARK  126  A    between atoms: _308  and  _311
REMARK  127  A    between atoms: _311  and  _312
REMARK  128  A    between atoms: _315  and  _317
REMARK  129  A    between atoms: _317  and  _318
REMARK  130  A    between atoms: _317  and  _320
REMARK  131  A    between atoms: _320  and  _321
REMARK  132  A    between atoms: _324  and  _326
REMARK  133  A    between atoms: _326  and  _327
REMARK  134  A    between atoms: _326  and  _329
REMARK  135  A    between atoms: _329  and  _330
REMARK  136  A    between atoms: _333  and  _335
REMARK  137  A    between atoms: _335  and  _336
REMARK  138  A    between atoms: _338  and  _340
REMARK  139  A    between atoms: _340  and  _341
REMARK  140  A    between atoms: _344  and  _346
REMARK  141  A    between atoms: _346  and  _347
REMARK  142  A    between atoms: _346  and  _349
REMARK  143  A    between atoms: _349  and  _350
REMARK  144  A    between atoms: _353  and  _355
REMARK  145  A    between atoms: _355  and  _356
REMARK  146  A    between atoms: _355  and  _358
REMARK  147  A    between atoms: _358  and  _359
REMARK  148  A    between atoms: _362  and  _364
REMARK  149  A    between atoms: _364  and  _365
REMARK  150  A    between atoms: _364  and  _367
REMARK  151  A    between atoms: _367  and  _368
REMARK  152  A    between atoms: _371  and  _373
REMARK  153  A    between atoms: _373  and  _374
REMARK  154  A    between atoms: _373  and  _376
REMARK  155  A    between atoms: _379  and  _381
REMARK  156  A    between atoms: _381  and  _382
REMARK  157  A    between atoms: _381  and  _384
REMARK  158  A    between atoms: _384  and  _385
REMARK  159  A    between atoms: _388  and  _390
REMARK  160  A    between atoms: _390  and  _391
REMARK  161  A    between atoms: _390  and  _393
REMARK  162  A    between atoms: _393  and  _394
REMARK  163  A    between atoms: _394  and  _395
REMARK  164  A    between atoms: _395  and  _396
REMARK  165  A    between atoms: _396  and  _397
REMARK  166  A    between atoms: _401  and  _403
REMARK  167  A    between atoms: _403  and  _404
REMARK  168  A    between atoms: _403  and  _406
REMARK  169  A    between atoms: _406  and  _407
REMARK  170  A    between atoms: _407  and  _408
REMARK  171  A    between atoms: _410  and  _412
REMARK  172  A    between atoms: _412  and  _413
REMARK  173  A    between atoms: _412  and  _415
REMARK  174  A    between atoms: _415  and  _416
REMARK  175  A    between atoms: _419  and  _421
REMARK  176  A    between atoms: _421  and  _422
REMARK  177  A    between atoms: _424  and  _426
REMARK  178  A    between atoms: _426  and  _427
REMARK  179  A    between atoms: _429  and  _431
REMARK  180  A    between atoms: _431  and  _432
REMARK  181  A    between atoms: _431  and  _434
REMARK  182  A    between atoms: _434  and  _435
REMARK  183  A    between atoms: _438  and  _440
REMARK  184  A    between atoms: _440  and  _441
REMARK  185  A    between atoms: _443  and  _445
REMARK  186  A    between atoms: _445  and  _446
REMARK  187  A    between atoms: _448  and  _450
REMARK  188  A    between atoms: _450  and  _451
REMARK  189  A    between atoms: _450  and  _453
REMARK  190  A    between atoms: _453  and  _454
REMARK  191  A    between atoms: _457  and  _459
REMARK  192  A    between atoms: _459  and  _460
REMARK  193  A    between atoms: _459  and  _462
REMARK  194  A    between atoms: _465  and  _467
REMARK  195  A    between atoms: _467  and  _468
REMARK  196  A    between atoms: _467  and  _470
REMARK  197  A    between atoms: _470  and  _471
REMARK  198  A    between atoms: _474  and  _476
REMARK  199  A    between atoms: _476  and  _477
REMARK  200  A    between atoms: _476  and  _479
REMARK  201  A    between atoms: _479  and  _480
REMARK  202  A    between atoms: _484  and  _485
REMARK  203  A    between atoms: _490  and  _492
REMARK  204  A    between atoms: _492  and  _493
REMARK  205  A    between atoms: _492  and  _495
REMARK  206  A    between atoms: _498  and  _500
REMARK  207  A    between atoms: _500  and  _501
REMARK  208  A    between atoms: _500  and  _503
REMARK  209  A    between atoms: _503  and  _504
REMARK  210  A    between atoms: _509  and  _511
REMARK  211  A    between atoms: _511  and  _512
REMARK  212  A    between atoms: _511  and  _514
REMARK  213  A    between atoms: _514  and  _515
REMARK  214  A    between atoms: _518  and  _520
REMARK  215  A    between atoms: _520  and  _521
REMARK  216  A    between atoms: _520  and  _523
REMARK  217  A    between atoms: _523  and  _524
REMARK  218  A    between atoms: _527  and  _529
REMARK  219  A    between atoms: _529  and  _530
REMARK  220  A    between atoms: _532  and  _534
REMARK  221  A    between atoms: _534  and  _535
REMARK  222  A    between atoms: _534  and  _537
REMARK  223  A    between atoms: _537  and  _538
REMARK  224  A    between atoms: _538  and  _539
REMARK  225  A    between atoms: _539  and  _540
REMARK  226  A    between atoms: _549  and  _551
REMARK  227  A    between atoms: _551  and  _552
REMARK  228  A    between atoms: _551  and  _554
REMARK  229  A    between atoms: _554  and  _555
REMARK                            x       y       z     vdW  Elec       q    Type
REMARK                         _______ _______ _______ _____ _____    ______ ____
ROOT
ATOM      1  O   HOH     1      25.506  39.031  24.378  0.00  0.00    +0.000 OA
ENDROOT
TORSDOF 0
REMARK  Name = ../refined-set-2016/2avo/2avo_pocket.pdb
REMARK  229 active torsions:
REMARK  status: ('A' for Active; 'I' for Inactive)
REMARK    1  A    between atoms: _1  and  _3
REMARK    2  A    between atoms: _3  and  _4
REMARK    3  A    between atoms: _3  and  _6
REMARK    4  A    between atoms: _6  and  _7
REMARK    5  A    between atoms: _7  and  _8
REMARK    6  A    between atoms: _8  and  _9
REMARK    7  A    between atoms: _18  and  _20
REMARK    8  A    between atoms: _20  and  _21
REMARK    9  A    between atoms: _20  and  _23
REMARK   10  A    between atoms: _23  and  _24
REMARK   11  A    between atoms: _27  and  _29
REMARK   12  A    between atoms: _29  and  _30
REMARK   13  A    between atoms: _29  and  _32
REMARK   14  A    between atoms: _32  and  _33
REMARK   15  A    between atoms: _36  and  _38
REMARK   16  A    between atoms: _38  and  _39
REMARK   17  A    between atoms: _38  and  _41
REMARK   18  A    between atoms: _41  and  _42
REMARK   19  A    between atoms: _45  and  _47
REMARK   20  A    between atoms: _47  and  _48
REMARK   21  A    between atoms: _47  and  _50
REMARK   22  A    between atoms: _50  and  _51
REMARK   23  A    between atoms: _54  and  _56
REMARK   24  A    between atoms: _56  and  _57
REMARK   25  A    between atoms: _56  and  _59
REMARK   26  A    between atoms: _59  and  _60
REMARK   27  A    between atoms: _63  and  _65
REMARK   28  A    between atoms: _65  and  _66
REMARK   29  A    between atoms: _68  and  _70
REMARK   30  A    between atoms: _70  and  _71
REMARK   31  A    between atoms: _74  and  _76
REMARK   32  A    between atoms: _76  and  _77
REMARK   33  A    between atoms: _76  and  _79
REMARK   34  A    between atoms: _79  and  _80
REMARK   35  A    between atoms: _83  and  _85
REMARK   36  A    between atoms: _85  and  _86
REMARK   37  A    between atoms: _85  and  _88
REMARK   38  A    between atoms: _88  and  _89
REMARK   39  A    between atoms: _92  and  _94
REMARK   40  A    between atoms: _94  and  _95
REMARK   41  A    between atoms: _94  and  _97
REMARK   42  A    between atoms: _97  and  _98
REMARK   43  A    between atoms: _101  and  _103
REMARK   44  A    between atoms: _103  and  _104
REMARK   45  A    between atoms: _103  and  _106
REMARK   46  A    between atoms: _109  and  _111
REMARK   47  A    between atoms: _111  and  _112
REMARK   48  A    between atoms: _111  and  _114
REMARK   49  A    between atoms: _114  and  _115
REMARK   50  A    between atoms: _115  and  _116
REMARK   51  A    between atoms: _118  and  _120
REMARK   52  A    between atoms: _120  and  _121
REMARK   53  A    between atoms: _120  and  _123
REMARK   54  A    between atoms: _123  and  _124
REMARK   55  A    between atoms: _127  and  _129
REMARK   56  A    between atoms: _129  and  _130
REMARK   57  A    between atoms: _132  and  _134
REMARK   58  A    between atoms: _134  and  _135
REMARK   59  A    between atoms: _137  and  _139
REMARK   60  A    between atoms: _139  and  _140
REMARK   61  A    between atoms: _139  and  _142
REMARK   62  A    between atoms: _142  and  _143
REMARK   63  A    between atoms: _146  and  _148
REMARK   64  A    between atoms: _148  and  _149
REMARK   65  A    between atoms: _151  and  _153
REMARK   66  A    between atoms: _153  and  _154
REMARK   67  A    between atoms: _156  and  _158
REMARK   68  A    between atoms: _158  and  _159
REMARK   69  A    between atoms: _158  and  _161
REMARK   70  A    between atoms: _161  and  _162
REMARK   71  A    between atoms: _168  and  _170
REMARK   72  A    between atoms: _170  and  _171
REMARK   73  A    between atoms: _170  and  _173
REMARK   74  A    between atoms: _173  and  _174
REMARK   75  A    between atoms: _177  and  _179
REMARK   76  A    between atoms: _179  and  _180
REMARK   77  A    between atoms: _179  and  _182
REMARK   78  A    between atoms: _185  and  _187
REMARK   79  A    between atoms: _187  and  _188
REMARK   80  A    between atoms: _187  and  _190
REMARK   81  A    between atoms: _190  and  _191
REMARK   82  A    between atoms: _194  and  _196
REMARK   83  A    between atoms: _196  and  _197
REMARK   84  A    between atoms: _196  and  _199
REMARK   85  A    between atoms: _199  and  _200
REMARK   86  A    between atoms: _204  and  _205
REMARK   87  A    between atoms: _210  and  _212
REMARK   88  A    between atoms: _212  and  _213
REMARK   89  A    between atoms: _212  and  _215
REMARK   90  A    between atoms: _218  and  _220
REMARK   91  A    between atoms: _220  and  _221
REMARK   92  A    between atoms: _220  and  _223
REMARK   93  A    between atoms: _223  and  _224
REMARK   94  A    between atoms: _229  and  _231
REMARK   95  A    between atoms: _231  and  _232
REMARK   96  A    between atoms: _231  and  _234
REMARK   97  A    between atoms: _234  and  _235
REMARK   98  A    between atoms: _238  and  _240
REMARK   99  A    between atoms: _240  and  _241
REMARK  100  A    between atoms: _240  and  _243
REMARK  101  A    between atoms: _243  and  _244
REMARK  102  A    between atoms: _247  and  _249
REMARK  103  A    between atoms: _249  and  _250
REMARK  104  A    between atoms: _252  and  _254
REMARK  105  A    between atoms: _254  and  _255
REMARK  106  A    between atoms: _254  and  _257
REMARK  107  A    between atoms: _257  and  _258
REMARK  108  A    between atoms: _258  and  _259
REMARK  109  A    between atoms: _259  and  _260
REMARK  110  A    between atoms: _269  and  _271
REMARK  111  A    between atoms: _271  and  _272
REMARK  112  A    between atoms: _271  and  _274
REMARK  113  A    between atoms: _274  and  _275
REMARK  114  A    between atoms: _280  and  _282
REMARK  115  A    between atoms: _282  and  _283
REMARK  116  A    between atoms: _282  and  _285
REMARK  117  A    between atoms: _285  and  _286
REMARK  118  A    between atoms: _286  and  _287
REMARK  119  A    between atoms: _287  and  _288
REMARK  120  A    between atoms: _297  and  _299
REMARK  121  A    between atoms: _299  and  _300
REMARK  122  A    between atoms: _299  and  _302
REMARK  123  A    between atoms: _302  and  _303
REMARK  124  A    between atoms: _306  and  _308
REMARK  125  A    between atoms: _308  and  _309
REMARK  126  A    between atoms: _308  and  _311
REMARK  127  A    between atoms: _311  and  _312
REMARK  128  A    between atoms: _315  and  _317
REMARK  129  A    between atoms: _317  and  _318
REMARK  130  A    between atoms: _317  and  _320
REMARK  131  A    between atoms: _320  and  _321
REMARK  132  A    between atoms: _324  and  _326
REMARK  133  A    between atoms: _326  and  _327
REMARK  134  A    between atoms: _326  and  _329
REMARK  135  A    between atoms: _329  and  _330
REMARK  136  A    between atoms: _333  and  _335
REMARK  137  A    between atoms: _335  and  _336
REMARK  138  A    between atoms: _338  and  _340
REMARK  139  A    between atoms: _340  and  _341
REMARK  140  A    between atoms: _344  and  _346
REMARK  141  A    between atoms: _346  and  _347
REMARK  142  A    between atoms: _346  and  _349
REMARK  143  A    between atoms: _349  and  _350
REMARK  144  A    between atoms: _353  and  _355
REMARK  145  A    between atoms: _355  and  _356
REMARK  146  A    between atoms: _355  and  _358
REMARK  147  A    between atoms: _358  and  _359
REMARK  148  A    between atoms: _362  and  _364
REMARK  149  A    between atoms: _364  and  _365
REMARK  150  A    between atoms: _364  and  _367
REMARK  151  A    between atoms: _367  and  _368
REMARK  152  A    between atoms: _371  and  _373
REMARK  153  A    between atoms: _373  and  _374
REMARK  154  A    between atoms: _373  and  _376
REMARK  155  A    between atoms: _379  and  _381
REMARK  156  A    between atoms: _381  and  _382
REMARK  157  A    between atoms: _381  and  _384
REMARK  158  A    between atoms: _384  and  _385
REMARK  159  A    between atoms: _388  and  _390
REMARK  160  A    between atoms: _390  and  _391
REMARK  161  A    between atoms: _390  and  _393
REMARK  162  A    between atoms: _393  and  _394
REMARK  163  A    between atoms: _394  and  _395
REMARK  164  A    between atoms: _395  and  _396
REMARK  165  A    between atoms: _396  and  _397
REMARK  166  A    between atoms: _401  and  _403
REMARK  167  A    between atoms: _403  and  _404
REMARK  168  A    between atoms: _403  and  _406
REMARK  169  A    between atoms: _406  and  _407
REMARK  170  A    between atoms: _407  and  _408
REMARK  171  A    between atoms: _410  and  _412
REMARK  172  A    between atoms: _412  and  _413
REMARK  173  A    between atoms: _412  and  _415
REMARK  174  A    between atoms: _415  and  _416
REMARK  175  A    between atoms: _419  and  _421
REMARK  176  A    between atoms: _421  and  _422
REMARK  177  A    between atoms: _424  and  _426
REMARK  178  A    between atoms: _426  and  _427
REMARK  179  A    between atoms: _429  and  _431
REMARK  180  A    between atoms: _431  and  _432
REMARK  181  A    between atoms: _431  and  _434
REMARK  182  A    between atoms: _434  and  _435
REMARK  183  A    between atoms: _438  and  _440
REMARK  184  A    between atoms: _440  and  _441
REMARK  185  A    between atoms: _443  and  _445
REMARK  186  A    between atoms: _445  and  _446
REMARK  187  A    between atoms: _448  and  _450
REMARK  188  A    between atoms: _450  and  _451
REMARK  189  A    between atoms: _450  and  _453
REMARK  190  A    between atoms: _453  and  _454
REMARK  191  A    between atoms: _457  and  _459
REMARK  192  A    between atoms: _459  and  _460
REMARK  193  A    between atoms: _459  and  _462
REMARK  194  A    between atoms: _465  and  _467
REMARK  195  A    between atoms: _467  and  _468
REMARK  196  A    between atoms: _467  and  _470
REMARK  197  A    between atoms: _470  and  _471
REMARK  198  A    between atoms: _474  and  _476
REMARK  199  A    between atoms: _476  and  _477
REMARK  200  A    between atoms: _476  and  _479
REMARK  201  A    between atoms: _479  and  _480
REMARK  202  A    between atoms: _484  and  _485
REMARK  203  A    between atoms: _490  and  _492
REMARK  204  A    between atoms: _492  and  _493
REMARK  205  A    between atoms: _492  and  _495
REMARK  206  A    between atoms: _498  and  _500
REMARK  207  A    between atoms: _500  and  _501
REMARK  208  A    between atoms: _500  and  _503
REMARK  209  A    between atoms: _503  and  _504
REMARK  210  A    between atoms: _509  and  _511
REMARK  211  A    between atoms: _511  and  _512
REMARK  212  A    between atoms: _511  and  _514
REMARK  213  A    between atoms: _514  and  _515
REMARK  214  A    between atoms: _518  and  _520
REMARK  215  A    between atoms: _520  and  _521
REMARK  216  A    between atoms: _520  and  _523
REMARK  217  A    between atoms: _523  and  _524
REMARK  218  A    between atoms: _527  and  _529
REMARK  219  A    between atoms: _529  and  _530
REMARK  220  A    between atoms: _532  and  _534
REMARK  221  A    between atoms: _534  and  _535
REMARK  222  A    between atoms: _534  and  _537
REMARK  223  A    between atoms: _537  and  _538
REMARK  224  A    between atoms: _538  and  _539
REMARK  225  A    between atoms: _539  and  _540
REMARK  226  A    between atoms: _549  and  _551
REMARK  227  A    between atoms: _551  and  _552
REMARK  228  A    between atoms: _551  and  _554
REMARK  229  A    between atoms: _554  and  _555
REMARK                            x       y       z     vdW  Elec       q    Type
REMARK                         _______ _______ _______ _____ _____    ______ ____
ROOT
ATOM      1  O   HOH     1      15.374  30.976   5.312  0.00  0.00    +0.000 OA
ENDROOT
TORSDOF 0
REMARK  Name = ../refined-set-2016/2avo/2avo_pocket.pdb
REMARK  229 active torsions:
REMARK  status: ('A' for Active; 'I' for Inactive)
REMARK    1  A    between atoms: _1  and  _3
REMARK    2  A    between atoms: _3  and  _4
REMARK    3  A    between atoms: _3  and  _6
REMARK    4  A    between atoms: _6  and  _7
REMARK    5  A    between atoms: _7  and  _8
REMARK    6  A    between atoms: _8  and  _9
REMARK    7  A    between atoms: _18  and  _20
REMARK    8  A    between atoms: _20  and  _21
REMARK    9  A    between atoms: _20  and  _23
REMARK   10  A    between atoms: _23  and  _24
REMARK   11  A    between atoms: _27  and  _29
REMARK   12  A    between atoms: _29  and  _30
REMARK   13  A    between atoms: _29  and  _32
REMARK   14  A    between atoms: _32  and  _33
REMARK   15  A    between atoms: _36  and  _38
REMARK   16  A    between atoms: _38  and  _39
REMARK   17  A    between atoms: _38  and  _41
REMARK   18  A    between atoms: _41  and  _42
REMARK   19  A    between atoms: _45  and  _47
REMARK   20  A    between atoms: _47  and  _48
REMARK   21  A    between atoms: _47  and  _50
REMARK   22  A    between atoms: _50  and  _51
REMARK   23  A    between atoms: _54  and  _56
REMARK   24  A    between atoms: _56  and  _57
REMARK   25  A    between atoms: _56  and  _59
REMARK   26  A    between atoms: _59  and  _60
REMARK   27  A    between atoms: _63  and  _65
REMARK   28  A    between atoms: _65  and  _66
REMARK   29  A    between atoms: _68  and  _70
REMARK   30  A    between atoms: _70  and  _71
REMARK   31  A    between atoms: _74  and  _76
REMARK   32  A    between atoms: _76  and  _77
REMARK   33  A    between atoms: _76  and  _79
REMARK   34  A    between atoms: _79  and  _80
REMARK   35  A    between atoms: _83  and  _85
REMARK   36  A    between atoms: _85  and  _86
REMARK   37  A    between atoms: _85  and  _88
REMARK   38  A    between atoms: _88  and  _89
REMARK   39  A    between atoms: _92  and  _94
REMARK   40  A    between atoms: _94  and  _95
REMARK   41  A    between atoms: _94  and  _97
REMARK   42  A    between atoms: _97  and  _98
REMARK   43  A    between atoms: _101  and  _103
REMARK   44  A    between atoms: _103  and  _104
REMARK   45  A    between atoms: _103  and  _106
REMARK   46  A    between atoms: _109  and  _111
REMARK   47  A    between atoms: _111  and  _112
REMARK   48  A    between atoms: _111  and  _114
REMARK   49  A    between atoms: _114  and  _115
REMARK   50  A    between atoms: _115  and  _116
REMARK   51  A    between atoms: _118  and  _120
REMARK   52  A    between atoms: _120  and  _121
REMARK   53  A    between atoms: _120  and  _123
REMARK   54  A    between atoms: _123  and  _124
REMARK   55  A    between atoms: _127  and  _129
REMARK   56  A    between atoms: _129  and  _130
REMARK   57  A    between atoms: _132  and  _134
REMARK   58  A    between atoms: _134  and  _135
REMARK   59  A    between atoms: _137  and  _139
REMARK   60  A    between atoms: _139  and  _140
REMARK   61  A    between atoms: _139  and  _142
REMARK   62  A    between atoms: _142  and  _143
REMARK   63  A    between atoms: _146  and  _148
REMARK   64  A    between atoms: _148  and  _149
REMARK   65  A    between atoms: _151  and  _153
REMARK   66  A    between atoms: _153  and  _154
REMARK   67  A    between atoms: _156  and  _158
REMARK   68  A    between atoms: _158  and  _159
REMARK   69  A    between atoms: _158  and  _161
REMARK   70  A    between atoms: _161  and  _162
REMARK   71  A    between atoms: _168  and  _170
REMARK   72  A    between atoms: _170  and  _171
REMARK   73  A    between atoms: _170  and  _173
REMARK   74  A    between atoms: _173  and  _174
REMARK   75  A    between atoms: _177  and  _179
REMARK   76  A    between atoms: _179  and  _180
REMARK   77  A    between atoms: _179  and  _182
REMARK   78  A    between atoms: _185  and  _187
REMARK   79  A    between atoms: _187  and  _188
REMARK   80  A    between atoms: _187  and  _190
REMARK   81  A    between atoms: _190  and  _191
REMARK   82  A    between atoms: _194  and  _196
REMARK   83  A    between atoms: _196  and  _197
REMARK   84  A    between atoms: _196  and  _199
REMARK   85  A    between atoms: _199  and  _200
REMARK   86  A    between atoms: _204  and  _205
REMARK   87  A    between atoms: _210  and  _212
REMARK   88  A    between atoms: _212  and  _213
REMARK   89  A    between atoms: _212  and  _215
REMARK   90  A    between atoms: _218  and  _220
REMARK   91  A    between atoms: _220  and  _221
REMARK   92  A    between atoms: _220  and  _223
REMARK   93  A    between atoms: _223  and  _224
REMARK   94  A    between atoms: _229  and  _231
REMARK   95  A    between atoms: _231  and  _232
REMARK   96  A    between atoms: _231  and  _234
REMARK   97  A    between atoms: _234  and  _235
REMARK   98  A    between atoms: _238  and  _240
REMARK   99  A    between atoms: _240  and  _241
REMARK  100  A    between atoms: _240  and  _243
REMARK  101  A    between atoms: _243  and  _244
REMARK  102  A    between atoms: _247  and  _249
REMARK  103  A    between atoms: _249  and  _250
REMARK  104  A    between atoms: _252  and  _254
REMARK  105  A    between atoms: _254  and  _255
REMARK  106  A    between atoms: _254  and  _257
REMARK  107  A    between atoms: _257  and  _258
REMARK  108  A    between atoms: _258  and  _259
REMARK  109  A    between atoms: _259  and  _260
REMARK  110  A    between atoms: _269  and  _271
REMARK  111  A    between atoms: _271  and  _272
REMARK  112  A    between atoms: _271  and  _274
REMARK  113  A    between atoms: _274  and  _275
REMARK  114  A    between atoms: _280  and  _282
REMARK  115  A    between atoms: _282  and  _283
REMARK  116  A    between atoms: _282  and  _285
REMARK  117  A    between atoms: _285  and  _286
REMARK  118  A    between atoms: _286  and  _287
REMARK  119  A    between atoms: _287  and  _288
REMARK  120  A    between atoms: _297  and  _299
REMARK  121  A    between atoms: _299  and  _300
REMARK  122  A    between atoms: _299  and  _302
REMARK  123  A    between atoms: _302  and  _303
REMARK  124  A    between atoms: _306  and  _308
REMARK  125  A    between atoms: _308  and  _309
REMARK  126  A    between atoms: _308  and  _311
REMARK  127  A    between atoms: _311  and  _312
REMARK  128  A    between atoms: _315  and  _317
REMARK  129  A    between atoms: _317  and  _318
REMARK  130  A    between atoms: _317  and  _320
REMARK  131  A    between atoms: _320  and  _321
REMARK  132  A    between atoms: _324  and  _326
REMARK  133  A    between atoms: _326  and  _327
REMARK  134  A    between atoms: _326  and  _329
REMARK  135  A    between atoms: _329  and  _330
REMARK  136  A    between atoms: _333  and  _335
REMARK  137  A    between atoms: _335  and  _336
REMARK  138  A    between atoms: _338  and  _340
REMARK  139  A    between atoms: _340  and  _341
REMARK  140  A    between atoms: _344  and  _346
REMARK  141  A    between atoms: _346  and  _347
REMARK  142  A    between atoms: _346  and  _349
REMARK  143  A    between atoms: _349  and  _350
REMARK  144  A    between atoms: _353  and  _355
REMARK  145  A    between atoms: _355  and  _356
REMARK  146  A    between atoms: _355  and  _358
REMARK  147  A    between atoms: _358  and  _359
REMARK  148  A    between atoms: _362  and  _364
REMARK  149  A    between atoms: _364  and  _365
REMARK  150  A    between atoms: _364  and  _367
REMARK  151  A    between atoms: _367  and  _368
REMARK  152  A    between atoms: _371  and  _373
REMARK  153  A    between atoms: _373  and  _374
REMARK  154  A    between atoms: _373  and  _376
REMARK  155  A    between atoms: _379  and  _381
REMARK  156  A    between atoms: _381  and  _382
REMARK  157  A    between atoms: _381  and  _384
REMARK  158  A    between atoms: _384  and  _385
REMARK  159  A    between atoms: _388  and  _390
REMARK  160  A    between atoms: _390  and  _391
REMARK  161  A    between atoms: _390  and  _393
REMARK  162  A    between atoms: _393  and  _394
REMARK  163  A    between atoms: _394  and  _395
REMARK  164  A    between atoms: _395  and  _396
REMARK  165  A    between atoms: _396  and  _397
REMARK  166  A    between atoms: _401  and  _403
REMARK  167  A    between atoms: _403  and  _404
REMARK  168  A    between atoms: _403  and  _406
REMARK  169  A    between atoms: _406  and  _407
REMARK  170  A    between atoms: _407  and  _408
REMARK  171  A    between atoms: _410  and  _412
REMARK  172  A    between atoms: _412  and  _413
REMARK  173  A    between atoms: _412  and  _415
REMARK  174  A    between atoms: _415  and  _416
REMARK  175  A    between atoms: _419  and  _421
REMARK  176  A    between atoms: _421  and  _422
REMARK  177  A    between atoms: _424  and  _426
REMARK  178  A    between atoms: _426  and  _427
REMARK  179  A    between atoms: _429  and  _431
REMARK  180  A    between atoms: _431  and  _432
REMARK  181  A    between atoms: _431  and  _434
REMARK  182  A    between atoms: _434  and  _435
REMARK  183  A    between atoms: _438  and  _440
REMARK  184  A    between atoms: _440  and  _441
REMARK  185  A    between atoms: _443  and  _445
REMARK  186  A    between atoms: _445  and  _446
REMARK  187  A    between atoms: _448  and  _450
REMARK  188  A    between atoms: _450  and  _451
REMARK  189  A    between atoms: _450  and  _453
REMARK  190  A    between atoms: _453  and  _454
REMARK  191  A    between atoms: _457  and  _459
REMARK  192  A    between atoms: _459  and  _460
REMARK  193  A    between atoms: _459  and  _462
REMARK  194  A    between atoms: _465  and  _467
REMARK  195  A    between atoms: _467  and  _468
REMARK  196  A    between atoms: _467  and  _470
REMARK  197  A    between atoms: _470  and  _471
REMARK  198  A    between atoms: _474  and  _476
REMARK  199  A    between atoms: _476  and  _477
REMARK  200  A    between atoms: _476  and  _479
REMARK  201  A    between atoms: _479  and  _480
REMARK  202  A    between atoms: _484  and  _485
REMARK  203  A    between atoms: _490  and  _492
REMARK  204  A    between atoms: _492  and  _493
REMARK  205  A    between atoms: _492  and  _495
REMARK  206  A    between atoms: _498  and  _500
REMARK  207  A    between atoms: _500  and  _501
REMARK  208  A    between atoms: _500  and  _503
REMARK  209  A    between atoms: _503  and  _504
REMARK  210  A    between atoms: _509  and  _511
REMARK  211  A    between atoms: _511  and  _512
REMARK  212  A    between atoms: _511  and  _514
REMARK  213  A    between atoms: _514  and  _515
REMARK  214  A    between atoms: _518  and  _520
REMARK  215  A    between atoms: _520  and  _521
REMARK  216  A    between atoms: _520  and  _523
REMARK  217  A    between atoms: _523  and  _524
REMARK  218  A    between atoms: _527  and  _529
REMARK  219  A    between atoms: _529  and  _530
REMARK  220  A    between atoms: _532  and  _534
REMARK  221  A    between atoms: _534  and  _535
REMARK  222  A    between atoms: _534  and  _537
REMARK  223  A    between atoms: _537  and  _538
REMARK  224  A    between atoms: _538  and  _539
REMARK  225  A    between atoms: _539  and  _540
REMARK  226  A    between atoms: _549  and  _551
REMARK  227  A    between atoms: _551  and  _552
REMARK  228  A    between atoms: _551  and  _554
REMARK  229  A    between atoms: _554  and  _555
REMARK                            x       y       z     vdW  Elec       q    Type
REMARK                         _______ _______ _______ _____ _____    ______ ____
ROOT
ATOM      1  O   HOH     1      17.775  29.585   6.025  0.00  0.00    +0.000 OA
ENDROOT
TORSDOF 0
REMARK  Name = ../refined-set-2016/2avo/2avo_pocket.pdb
REMARK  229 active torsions:
REMARK  status: ('A' for Active; 'I' for Inactive)
REMARK    1  A    between atoms: _1  and  _3
REMARK    2  A    between atoms: _3  and  _4
REMARK    3  A    between atoms: _3  and  _6
REMARK    4  A    between atoms: _6  and  _7
REMARK    5  A    between atoms: _7  and  _8
REMARK    6  A    between atoms: _8  and  _9
REMARK    7  A    between atoms: _18  and  _20
REMARK    8  A    between atoms: _20  and  _21
REMARK    9  A    between atoms: _20  and  _23
REMARK   10  A    between atoms: _23  and  _24
REMARK   11  A    between atoms: _27  and  _29
REMARK   12  A    between atoms: _29  and  _30
REMARK   13  A    between atoms: _29  and  _32
REMARK   14  A    between atoms: _32  and  _33
REMARK   15  A    between atoms: _36  and  _38
REMARK   16  A    between atoms: _38  and  _39
REMARK   17  A    between atoms: _38  and  _41
REMARK   18  A    between atoms: _41  and  _42
REMARK   19  A    between atoms: _45  and  _47
REMARK   20  A    between atoms: _47  and  _48
REMARK   21  A    between atoms: _47  and  _50
REMARK   22  A    between atoms: _50  and  _51
REMARK   23  A    between atoms: _54  and  _56
REMARK   24  A    between atoms: _56  and  _57
REMARK   25  A    between atoms: _56  and  _59
REMARK   26  A    between atoms: _59  and  _60
REMARK   27  A    between atoms: _63  and  _65
REMARK   28  A    between atoms: _65  and  _66
REMARK   29  A    between atoms: _68  and  _70
REMARK   30  A    between atoms: _70  and  _71
REMARK   31  A    between atoms: _74  and  _76
REMARK   32  A    between atoms: _76  and  _77
REMARK   33  A    between atoms: _76  and  _79
REMARK   34  A    between atoms: _79  and  _80
REMARK   35  A    between atoms: _83  and  _85
REMARK   36  A    between atoms: _85  and  _86
REMARK   37  A    between atoms: _85  and  _88
REMARK   38  A    between atoms: _88  and  _89
REMARK   39  A    between atoms: _92  and  _94
REMARK   40  A    between atoms: _94  and  _95
REMARK   41  A    between atoms: _94  and  _97
REMARK   42  A    between atoms: _97  and  _98
REMARK   43  A    between atoms: _101  and  _103
REMARK   44  A    between atoms: _103  and  _104
REMARK   45  A    between atoms: _103  and  _106
REMARK   46  A    between atoms: _109  and  _111
REMARK   47  A    between atoms: _111  and  _112
REMARK   48  A    between atoms: _111  and  _114
REMARK   49  A    between atoms: _114  and  _115
REMARK   50  A    between atoms: _115  and  _116
REMARK   51  A    between atoms: _118  and  _120
REMARK   52  A    between atoms: _120  and  _121
REMARK   53  A    between atoms: _120  and  _123
REMARK   54  A    between atoms: _123  and  _124
REMARK   55  A    between atoms: _127  and  _129
REMARK   56  A    between atoms: _129  and  _130
REMARK   57  A    between atoms: _132  and  _134
REMARK   58  A    between atoms: _134  and  _135
REMARK   59  A    between atoms: _137  and  _139
REMARK   60  A    between atoms: _139  and  _140
REMARK   61  A    between atoms: _139  and  _142
REMARK   62  A    between atoms: _142  and  _143
REMARK   63  A    between atoms: _146  and  _148
REMARK   64  A    between atoms: _148  and  _149
REMARK   65  A    between atoms: _151  and  _153
REMARK   66  A    between atoms: _153  and  _154
REMARK   67  A    between atoms: _156  and  _158
REMARK   68  A    between atoms: _158  and  _159
REMARK   69  A    between atoms: _158  and  _161
REMARK   70  A    between atoms: _161  and  _162
REMARK   71  A    between atoms: _168  and  _170
REMARK   72  A    between atoms: _170  and  _171
REMARK   73  A    between atoms: _170  and  _173
REMARK   74  A    between atoms: _173  and  _174
REMARK   75  A    between atoms: _177  and  _179
REMARK   76  A    between atoms: _179  and  _180
REMARK   77  A    between atoms: _179  and  _182
REMARK   78  A    between atoms: _185  and  _187
REMARK   79  A    between atoms: _187  and  _188
REMARK   80  A    between atoms: _187  and  _190
REMARK   81  A    between atoms: _190  and  _191
REMARK   82  A    between atoms: _194  and  _196
REMARK   83  A    between atoms: _196  and  _197
REMARK   84  A    between atoms: _196  and  _199
REMARK   85  A    between atoms: _199  and  _200
REMARK   86  A    between atoms: _204  and  _205
REMARK   87  A    between atoms: _210  and  _212
REMARK   88  A    between atoms: _212  and  _213
REMARK   89  A    between atoms: _212  and  _215
REMARK   90  A    between atoms: _218  and  _220
REMARK   91  A    between atoms: _220  and  _221
REMARK   92  A    between atoms: _220  and  _223
REMARK   93  A    between atoms: _223  and  _224
REMARK   94  A    between atoms: _229  and  _231
REMARK   95  A    between atoms: _231  and  _232
REMARK   96  A    between atoms: _231  and  _234
REMARK   97  A    between atoms: _234  and  _235
REMARK   98  A    between atoms: _238  and  _240
REMARK   99  A    between atoms: _240  and  _241
REMARK  100  A    between atoms: _240  and  _243
REMARK  101  A    between atoms: _243  and  _244
REMARK  102  A    between atoms: _247  and  _249
REMARK  103  A    between atoms: _249  and  _250
REMARK  104  A    between atoms: _252  and  _254
REMARK  105  A    between atoms: _254  and  _255
REMARK  106  A    between atoms: _254  and  _257
REMARK  107  A    between atoms: _257  and  _258
REMARK  108  A    between atoms: _258  and  _259
REMARK  109  A    between atoms: _259  and  _260
REMARK  110  A    between atoms: _269  and  _271
REMARK  111  A    between atoms: _271  and  _272
REMARK  112  A    between atoms: _271  and  _274
REMARK  113  A    between atoms: _274  and  _275
REMARK  114  A    between atoms: _280  and  _282
REMARK  115  A    between atoms: _282  and  _283
REMARK  116  A    between atoms: _282  and  _285
REMARK  117  A    between atoms: _285  and  _286
REMARK  118  A    between atoms: _286  and  _287
REMARK  119  A    between atoms: _287  and  _288
REMARK  120  A    between atoms: _297  and  _299
REMARK  121  A    between atoms: _299  and  _300
REMARK  122  A    between atoms: _299  and  _302
REMARK  123  A    between atoms: _302  and  _303
REMARK  124  A    between atoms: _306  and  _308
REMARK  125  A    between atoms: _308  and  _309
REMARK  126  A    between atoms: _308  and  _311
REMARK  127  A    between atoms: _311  and  _312
REMARK  128  A    between atoms: _315  and  _317
REMARK  129  A    between atoms: _317  and  _318
REMARK  130  A    between atoms: _317  and  _320
REMARK  131  A    between atoms: _320  and  _321
REMARK  132  A    between atoms: _324  and  _326
REMARK  133  A    between atoms: _326  and  _327
REMARK  134  A    between atoms: _326  and  _329
REMARK  135  A    between atoms: _329  and  _330
REMARK  136  A    between atoms: _333  and  _335
REMARK  137  A    between atoms: _335  and  _336
REMARK  138  A    between atoms: _338  and  _340
REMARK  139  A    between atoms: _340  and  _341
REMARK  140  A    between atoms: _344  and  _346
REMARK  141  A    between atoms: _346  and  _347
REMARK  142  A    between atoms: _346  and  _349
REMARK  143  A    between atoms: _349  and  _350
REMARK  144  A    between atoms: _353  and  _355
REMARK  145  A    between atoms: _355  and  _356
REMARK  146  A    between atoms: _355  and  _358
REMARK  147  A    between atoms: _358  and  _359
REMARK  148  A    between atoms: _362  and  _364
REMARK  149  A    between atoms: _364  and  _365
REMARK  150  A    between atoms: _364  and  _367
REMARK  151  A    between atoms: _367  and  _368
REMARK  152  A    between atoms: _371  and  _373
REMARK  153  A    between atoms: _373  and  _374
REMARK  154  A    between atoms: _373  and  _376
REMARK  155  A    between atoms: _379  and  _381
REMARK  156  A    between atoms: _381  and  _382
REMARK  157  A    between atoms: _381  and  _384
REMARK  158  A    between atoms: _384  and  _385
REMARK  159  A    between atoms: _388  and  _390
REMARK  160  A    between atoms: _390  and  _391
REMARK  161  A    between atoms: _390  and  _393
REMARK  162  A    between atoms: _393  and  _394
REMARK  163  A    between atoms: _394  and  _395
REMARK  164  A    between atoms: _395  and  _396
REMARK  165  A    between atoms: _396  and  _397
REMARK  166  A    between atoms: _401  and  _403
REMARK  167  A    between atoms: _403  and  _404
REMARK  168  A    between atoms: _403  and  _406
REMARK  169  A    between atoms: _406  and  _407
REMARK  170  A    between atoms: _407  and  _408
REMARK  171  A    between atoms: _410  and  _412
REMARK  172  A    between atoms: _412  and  _413
REMARK  173  A    between atoms: _412  and  _415
REMARK  174  A    between atoms: _415  and  _416
REMARK  175  A    between atoms: _419  and  _421
REMARK  176  A    between atoms: _421  and  _422
REMARK  177  A    between atoms: _424  and  _426
REMARK  178  A    between atoms: _426  and  _427
REMARK  179  A    between atoms: _429  and  _431
REMARK  180  A    between atoms: _431  and  _432
REMARK  181  A    between atoms: _431  and  _434
REMARK  182  A    between atoms: _434  and  _435
REMARK  183  A    between atoms: _438  and  _440
REMARK  184  A    between atoms: _440  and  _441
REMARK  185  A    between atoms: _443  and  _445
REMARK  186  A    between atoms: _445  and  _446
REMARK  187  A    between atoms: _448  and  _450
REMARK  188  A    between atoms: _450  and  _451
REMARK  189  A    between atoms: _450  and  _453
REMARK  190  A    between atoms: _453  and  _454
REMARK  191  A    between atoms: _457  and  _459
REMARK  192  A    between atoms: _459  and  _460
REMARK  193  A    between atoms: _459  and  _462
REMARK  194  A    between atoms: _465  and  _467
REMARK  195  A    between atoms: _467  and  _468
REMARK  196  A    between atoms: _467  and  _470
REMARK  197  A    between atoms: _470  and  _471
REMARK  198  A    between atoms: _474  and  _476
REMARK  199  A    between atoms: _476  and  _477
REMARK  200  A    between atoms: _476  and  _479
REMARK  201  A    between atoms: _479  and  _480
REMARK  202  A    between atoms: _484  and  _485
REMARK  203  A    between atoms: _490  and  _492
REMARK  204  A    between atoms: _492  and  _493
REMARK  205  A    between atoms: _492  and  _495
REMARK  206  A    between atoms: _498  and  _500
REMARK  207  A    between atoms: _500  and  _501
REMARK  208  A    between atoms: _500  and  _503
REMARK  209  A    between atoms: _503  and  _504
REMARK  210  A    between atoms: _509  and  _511
REMARK  211  A    between atoms: _511  and  _512
REMARK  212  A    between atoms: _511  and  _514
REMARK  213  A    between atoms: _514  and  _515
REMARK  214  A    between atoms: _518  and  _520
REMARK  215  A    between atoms: _520  and  _521
REMARK  216  A    between atoms: _520  and  _523
REMARK  217  A    between atoms: _523  and  _524
REMARK  218  A    between atoms: _527  and  _529
REMARK  219  A    between atoms: _529  and  _530
REMARK  220  A    between atoms: _532  and  _534
REMARK  221  A    between atoms: _534  and  _535
REMARK  222  A    between atoms: _534  and  _537
REMARK  223  A    between atoms: _537  and  _538
REMARK  224  A    between atoms: _538  and  _539
REMARK  225  A    between atoms: _539  and  _540
REMARK  226  A    between atoms: _549  and  _551
REMARK  227  A    between atoms: _551  and  _552
REMARK  228  A    between atoms: _551  and  _554
REMARK  229  A    between atoms: _554  and  _555
REMARK                            x       y       z     vdW  Elec       q    Type
REMARK                         _______ _______ _______ _____ _____    ______ ____
ROOT
ATOM      1  O   HOH     1      28.860  37.577  22.269  0.00  0.00    +0.000 OA
ENDROOT
TORSDOF 0
REMARK  Name = ../refined-set-2016/2avo/2avo_pocket.pdb
REMARK  229 active torsions:
REMARK  status: ('A' for Active; 'I' for Inactive)
REMARK    1  A    between atoms: _1  and  _3
REMARK    2  A    between atoms: _3  and  _4
REMARK    3  A    between atoms: _3  and  _6
REMARK    4  A    between atoms: _6  and  _7
REMARK    5  A    between atoms: _7  and  _8
REMARK    6  A    between atoms: _8  and  _9
REMARK    7  A    between atoms: _18  and  _20
REMARK    8  A    between atoms: _20  and  _21
REMARK    9  A    between atoms: _20  and  _23
REMARK   10  A    between atoms: _23  and  _24
REMARK   11  A    between atoms: _27  and  _29
REMARK   12  A    between atoms: _29  and  _30
REMARK   13  A    between atoms: _29  and  _32
REMARK   14  A    between atoms: _32  and  _33
REMARK   15  A    between atoms: _36  and  _38
REMARK   16  A    between atoms: _38  and  _39
REMARK   17  A    between atoms: _38  and  _41
REMARK   18  A    between atoms: _41  and  _42
REMARK   19  A    between atoms: _45  and  _47
REMARK   20  A    between atoms: _47  and  _48
REMARK   21  A    between atoms: _47  and  _50
REMARK   22  A    between atoms: _50  and  _51
REMARK   23  A    between atoms: _54  and  _56
REMARK   24  A    between atoms: _56  and  _57
REMARK   25  A    between atoms: _56  and  _59
REMARK   26  A    between atoms: _59  and  _60
REMARK   27  A    between atoms: _63  and  _65
REMARK   28  A    between atoms: _65  and  _66
REMARK   29  A    between atoms: _68  and  _70
REMARK   30  A    between atoms: _70  and  _71
REMARK   31  A    between atoms: _74  and  _76
REMARK   32  A    between atoms: _76  and  _77
REMARK   33  A    between atoms: _76  and  _79
REMARK   34  A    between atoms: _79  and  _80
REMARK   35  A    between atoms: _83  and  _85
REMARK   36  A    between atoms: _85  and  _86
REMARK   37  A    between atoms: _85  and  _88
REMARK   38  A    between atoms: _88  and  _89
REMARK   39  A    between atoms: _92  and  _94
REMARK   40  A    between atoms: _94  and  _95
REMARK   41  A    between atoms: _94  and  _97
REMARK   42  A    between atoms: _97  and  _98
REMARK   43  A    between atoms: _101  and  _103
REMARK   44  A    between atoms: _103  and  _104
REMARK   45  A    between atoms: _103  and  _106
REMARK   46  A    between atoms: _109  and  _111
REMARK   47  A    between atoms: _111  and  _112
REMARK   48  A    between atoms: _111  and  _114
REMARK   49  A    between atoms: _114  and  _115
REMARK   50  A    between atoms: _115  and  _116
REMARK   51  A    between atoms: _118  and  _120
REMARK   52  A    between atoms: _120  and  _121
REMARK   53  A    between atoms: _120  and  _123
REMARK   54  A    between atoms: _123  and  _124
REMARK   55  A    between atoms: _127  and  _129
REMARK   56  A    between atoms: _129  and  _130
REMARK   57  A    between atoms: _132  and  _134
REMARK   58  A    between atoms: _134  and  _135
REMARK   59  A    between atoms: _137  and  _139
REMARK   60  A    between atoms: _139  and  _140
REMARK   61  A    between atoms: _139  and  _142
REMARK   62  A    between atoms: _142  and  _143
REMARK   63  A    between atoms: _146  and  _148
REMARK   64  A    between atoms: _148  and  _149
REMARK   65  A    between atoms: _151  and  _153
REMARK   66  A    between atoms: _153  and  _154
REMARK   67  A    between atoms: _156  and  _158
REMARK   68  A    between atoms: _158  and  _159
REMARK   69  A    between atoms: _158  and  _161
REMARK   70  A    between atoms: _161  and  _162
REMARK   71  A    between atoms: _168  and  _170
REMARK   72  A    between atoms: _170  and  _171
REMARK   73  A    between atoms: _170  and  _173
REMARK   74  A    between atoms: _173  and  _174
REMARK   75  A    between atoms: _177  and  _179
REMARK   76  A    between atoms: _179  and  _180
REMARK   77  A    between atoms: _179  and  _182
REMARK   78  A    between atoms: _185  and  _187
REMARK   79  A    between atoms: _187  and  _188
REMARK   80  A    between atoms: _187  and  _190
REMARK   81  A    between atoms: _190  and  _191
REMARK   82  A    between atoms: _194  and  _196
REMARK   83  A    between atoms: _196  and  _197
REMARK   84  A    between atoms: _196  and  _199
REMARK   85  A    between atoms: _199  and  _200
REMARK   86  A    between atoms: _204  and  _205
REMARK   87  A    between atoms: _210  and  _212
REMARK   88  A    between atoms: _212  and  _213
REMARK   89  A    between atoms: _212  and  _215
REMARK   90  A    between atoms: _218  and  _220
REMARK   91  A    between atoms: _220  and  _221
REMARK   92  A    between atoms: _220  and  _223
REMARK   93  A    between atoms: _223  and  _224
REMARK   94  A    between atoms: _229  and  _231
REMARK   95  A    between atoms: _231  and  _232
REMARK   96  A    between atoms: _231  and  _234
REMARK   97  A    between atoms: _234  and  _235
REMARK   98  A    between atoms: _238  and  _240
REMARK   99  A    between atoms: _240  and  _241
REMARK  100  A    between atoms: _240  and  _243
REMARK  101  A    between atoms: _243  and  _244
REMARK  102  A    between atoms: _247  and  _249
REMARK  103  A    between atoms: _249  and  _250
REMARK  104  A    between atoms: _252  and  _254
REMARK  105  A    between atoms: _254  and  _255
REMARK  106  A    between atoms: _254  and  _257
REMARK  107  A    between atoms: _257  and  _258
REMARK  108  A    between atoms: _258  and  _259
REMARK  109  A    between atoms: _259  and  _260
REMARK  110  A    between atoms: _269  and  _271
REMARK  111  A    between atoms: _271  and  _272
REMARK  112  A    between atoms: _271  and  _274
REMARK  113  A    between atoms: _274  and  _275
REMARK  114  A    between atoms: _280  and  _282
REMARK  115  A    between atoms: _282  and  _283
REMARK  116  A    between atoms: _282  and  _285
REMARK  117  A    between atoms: _285  and  _286
REMARK  118  A    between atoms: _286  and  _287
REMARK  119  A    between atoms: _287  and  _288
REMARK  120  A    between atoms: _297  and  _299
REMARK  121  A    between atoms: _299  and  _300
REMARK  122  A    between atoms: _299  and  _302
REMARK  123  A    between atoms: _302  and  _303
REMARK  124  A    between atoms: _306  and  _308
REMARK  125  A    between atoms: _308  and  _309
REMARK  126  A    between atoms: _308  and  _311
REMARK  127  A    between atoms: _311  and  _312
REMARK  128  A    between atoms: _315  and  _317
REMARK  129  A    between atoms: _317  and  _318
REMARK  130  A    between atoms: _317  and  _320
REMARK  131  A    between atoms: _320  and  _321
REMARK  132  A    between atoms: _324  and  _326
REMARK  133  A    between atoms: _326  and  _327
REMARK  134  A    between atoms: _326  and  _329
REMARK  135  A    between atoms: _329  and  _330
REMARK  136  A    between atoms: _333  and  _335
REMARK  137  A    between atoms: _335  and  _336
REMARK  138  A    between atoms: _338  and  _340
REMARK  139  A    between atoms: _340  and  _341
REMARK  140  A    between atoms: _344  and  _346
REMARK  141  A    between atoms: _346  and  _347
REMARK  142  A    between atoms: _346  and  _349
REMARK  143  A    between atoms: _349  and  _350
REMARK  144  A    between atoms: _353  and  _355
REMARK  145  A    between atoms: _355  and  _356
REMARK  146  A    between atoms: _355  and  _358
REMARK  147  A    between atoms: _358  and  _359
REMARK  148  A    between atoms: _362  and  _364
REMARK  149  A    between atoms: _364  and  _365
REMARK  150  A    between atoms: _364  and  _367
REMARK  151  A    between atoms: _367  and  _368
REMARK  152  A    between atoms: _371  and  _373
REMARK  153  A    between atoms: _373  and  _374
REMARK  154  A    between atoms: _373  and  _376
REMARK  155  A    between atoms: _379  and  _381
REMARK  156  A    between atoms: _381  and  _382
REMARK  157  A    between atoms: _381  and  _384
REMARK  158  A    between atoms: _384  and  _385
REMARK  159  A    between atoms: _388  and  _390
REMARK  160  A    between atoms: _390  and  _391
REMARK  161  A    between atoms: _390  and  _393
REMARK  162  A    between atoms: _393  and  _394
REMARK  163  A    between atoms: _394  and  _395
REMARK  164  A    between atoms: _395  and  _396
REMARK  165  A    between atoms: _396  and  _397
REMARK  166  A    between atoms: _401  and  _403
REMARK  167  A    between atoms: _403  and  _404
REMARK  168  A    between atoms: _403  and  _406
REMARK  169  A    between atoms: _406  and  _407
REMARK  170  A    between atoms: _407  and  _408
REMARK  171  A    between atoms: _410  and  _412
REMARK  172  A    between atoms: _412  and  _413
REMARK  173  A    between atoms: _412  and  _415
REMARK  174  A    between atoms: _415  and  _416
REMARK  175  A    between atoms: _419  and  _421
REMARK  176  A    between atoms: _421  and  _422
REMARK  177  A    between atoms: _424  and  _426
REMARK  178  A    between atoms: _426  and  _427
REMARK  179  A    between atoms: _429  and  _431
REMARK  180  A    between atoms: _431  and  _432
REMARK  181  A    between atoms: _431  and  _434
REMARK  182  A    between atoms: _434  and  _435
REMARK  183  A    between atoms: _438  and  _440
REMARK  184  A    between atoms: _440  and  _441
REMARK  185  A    between atoms: _443  and  _445
REMARK  186  A    between atoms: _445  and  _446
REMARK  187  A    between atoms: _448  and  _450
REMARK  188  A    between atoms: _450  and  _451
REMARK  189  A    between atoms: _450  and  _453
REMARK  190  A    between atoms: _453  and  _454
REMARK  191  A    between atoms: _457  and  _459
REMARK  192  A    between atoms: _459  and  _460
REMARK  193  A    between atoms: _459  and  _462
REMARK  194  A    between atoms: _465  and  _467
REMARK  195  A    between atoms: _467  and  _468
REMARK  196  A    between atoms: _467  and  _470
REMARK  197  A    between atoms: _470  and  _471
REMARK  198  A    between atoms: _474  and  _476
REMARK  199  A    between atoms: _476  and  _477
REMARK  200  A    between atoms: _476  and  _479
REMARK  201  A    between atoms: _479  and  _480
REMARK  202  A    between atoms: _484  and  _485
REMARK  203  A    between atoms: _490  and  _492
REMARK  204  A    between atoms: _492  and  _493
REMARK  205  A    between atoms: _492  and  _495
REMARK  206  A    between atoms: _498  and  _500
REMARK  207  A    between atoms: _500  and  _501
REMARK  208  A    between atoms: _500  and  _503
REMARK  209  A    between atoms: _503  and  _504
REMARK  210  A    between atoms: _509  and  _511
REMARK  211  A    between atoms: _511  and  _512
REMARK  212  A    between atoms: _511  and  _514
REMARK  213  A    between atoms: _514  and  _515
REMARK  214  A    between atoms: _518  and  _520
REMARK  215  A    between atoms: _520  and  _521
REMARK  216  A    between atoms: _520  and  _523
REMARK  217  A    between atoms: _523  and  _524
REMARK  218  A    between atoms: _527  and  _529
REMARK  219  A    between atoms: _529  and  _530
REMARK  220  A    between atoms: _532  and  _534
REMARK  221  A    between atoms: _534  and  _535
REMARK  222  A    between atoms: _534  and  _537
REMARK  223  A    between atoms: _537  and  _538
REMARK  224  A    between atoms: _538  and  _539
REMARK  225  A    between atoms: _539  and  _540
REMARK  226  A    between atoms: _549  and  _551
REMARK  227  A    between atoms: _551  and  _552
REMARK  228  A    between atoms: _551  and  _554
REMARK  229  A    between atoms: _554  and  _555
REMARK                            x       y       z     vdW  Elec       q    Type
REMARK                         _______ _______ _______ _____ _____    ______ ____
ROOT
ATOM      1  O   HOH     1      26.649  22.951   5.115  0.00  0.00    +0.000 OA
ENDROOT
TORSDOF 0
REMARK  Name = ../refined-set-2016/2avo/2avo_pocket.pdb
REMARK  229 active torsions:
REMARK  status: ('A' for Active; 'I' for Inactive)
REMARK    1  A    between atoms: _1  and  _3
REMARK    2  A    between atoms: _3  and  _4
REMARK    3  A    between atoms: _3  and  _6
REMARK    4  A    between atoms: _6  and  _7
REMARK    5  A    between atoms: _7  and  _8
REMARK    6  A    between atoms: _8  and  _9
REMARK    7  A    between atoms: _18  and  _20
REMARK    8  A    between atoms: _20  and  _21
REMARK    9  A    between atoms: _20  and  _23
REMARK   10  A    between atoms: _23  and  _24
REMARK   11  A    between atoms: _27  and  _29
REMARK   12  A    between atoms: _29  and  _30
REMARK   13  A    between atoms: _29  and  _32
REMARK   14  A    between atoms: _32  and  _33
REMARK   15  A    between atoms: _36  and  _38
REMARK   16  A    between atoms: _38  and  _39
REMARK   17  A    between atoms: _38  and  _41
REMARK   18  A    between atoms: _41  and  _42
REMARK   19  A    between atoms: _45  and  _47
REMARK   20  A    between atoms: _47  and  _48
REMARK   21  A    between atoms: _47  and  _50
REMARK   22  A    between atoms: _50  and  _51
REMARK   23  A    between atoms: _54  and  _56
REMARK   24  A    between atoms: _56  and  _57
REMARK   25  A    between atoms: _56  and  _59
REMARK   26  A    between atoms: _59  and  _60
REMARK   27  A    between atoms: _63  and  _65
REMARK   28  A    between atoms: _65  and  _66
REMARK   29  A    between atoms: _68  and  _70
REMARK   30  A    between atoms: _70  and  _71
REMARK   31  A    between atoms: _74  and  _76
REMARK   32  A    between atoms: _76  and  _77
REMARK   33  A    between atoms: _76  and  _79
REMARK   34  A    between atoms: _79  and  _80
REMARK   35  A    between atoms: _83  and  _85
REMARK   36  A    between atoms: _85  and  _86
REMARK   37  A    between atoms: _85  and  _88
REMARK   38  A    between atoms: _88  and  _89
REMARK   39  A    between atoms: _92  and  _94
REMARK   40  A    between atoms: _94  and  _95
REMARK   41  A    between atoms: _94  and  _97
REMARK   42  A    between atoms: _97  and  _98
REMARK   43  A    between atoms: _101  and  _103
REMARK   44  A    between atoms: _103  and  _104
REMARK   45  A    between atoms: _103  and  _106
REMARK   46  A    between atoms: _109  and  _111
REMARK   47  A    between atoms: _111  and  _112
REMARK   48  A    between atoms: _111  and  _114
REMARK   49  A    between atoms: _114  and  _115
REMARK   50  A    between atoms: _115  and  _116
REMARK   51  A    between atoms: _118  and  _120
REMARK   52  A    between atoms: _120  and  _121
REMARK   53  A    between atoms: _120  and  _123
REMARK   54  A    between atoms: _123  and  _124
REMARK   55  A    between atoms: _127  and  _129
REMARK   56  A    between atoms: _129  and  _130
REMARK   57  A    between atoms: _132  and  _134
REMARK   58  A    between atoms: _134  and  _135
REMARK   59  A    between atoms: _137  and  _139
REMARK   60  A    between atoms: _139  and  _140
REMARK   61  A    between atoms: _139  and  _142
REMARK   62  A    between atoms: _142  and  _143
REMARK   63  A    between atoms: _146  and  _148
REMARK   64  A    between atoms: _148  and  _149
REMARK   65  A    between atoms: _151  and  _153
REMARK   66  A    between atoms: _153  and  _154
REMARK   67  A    between atoms: _156  and  _158
REMARK   68  A    between atoms: _158  and  _159
REMARK   69  A    between atoms: _158  and  _161
REMARK   70  A    between atoms: _161  and  _162
REMARK   71  A    between atoms: _168  and  _170
REMARK   72  A    between atoms: _170  and  _171
REMARK   73  A    between atoms: _170  and  _173
REMARK   74  A    between atoms: _173  and  _174
REMARK   75  A    between atoms: _177  and  _179
REMARK   76  A    between atoms: _179  and  _180
REMARK   77  A    between atoms: _179  and  _182
REMARK   78  A    between atoms: _185  and  _187
REMARK   79  A    between atoms: _187  and  _188
REMARK   80  A    between atoms: _187  and  _190
REMARK   81  A    between atoms: _190  and  _191
REMARK   82  A    between atoms: _194  and  _196
REMARK   83  A    between atoms: _196  and  _197
REMARK   84  A    between atoms: _196  and  _199
REMARK   85  A    between atoms: _199  and  _200
REMARK   86  A    between atoms: _204  and  _205
REMARK   87  A    between atoms: _210  and  _212
REMARK   88  A    between atoms: _212  and  _213
REMARK   89  A    between atoms: _212  and  _215
REMARK   90  A    between atoms: _218  and  _220
REMARK   91  A    between atoms: _220  and  _221
REMARK   92  A    between atoms: _220  and  _223
REMARK   93  A    between atoms: _223  and  _224
REMARK   94  A    between atoms: _229  and  _231
REMARK   95  A    between atoms: _231  and  _232
REMARK   96  A    between atoms: _231  and  _234
REMARK   97  A    between atoms: _234  and  _235
REMARK   98  A    between atoms: _238  and  _240
REMARK   99  A    between atoms: _240  and  _241
REMARK  100  A    between atoms: _240  and  _243
REMARK  101  A    between atoms: _243  and  _244
REMARK  102  A    between atoms: _247  and  _249
REMARK  103  A    between atoms: _249  and  _250
REMARK  104  A    between atoms: _252  and  _254
REMARK  105  A    between atoms: _254  and  _255
REMARK  106  A    between atoms: _254  and  _257
REMARK  107  A    between atoms: _257  and  _258
REMARK  108  A    between atoms: _258  and  _259
REMARK  109  A    between atoms: _259  and  _260
REMARK  110  A    between atoms: _269  and  _271
REMARK  111  A    between atoms: _271  and  _272
REMARK  112  A    between atoms: _271  and  _274
REMARK  113  A    between atoms: _274  and  _275
REMARK  114  A    between atoms: _280  and  _282
REMARK  115  A    between atoms: _282  and  _283
REMARK  116  A    between atoms: _282  and  _285
REMARK  117  A    between atoms: _285  and  _286
REMARK  118  A    between atoms: _286  and  _287
REMARK  119  A    between atoms: _287  and  _288
REMARK  120  A    between atoms: _297  and  _299
REMARK  121  A    between atoms: _299  and  _300
REMARK  122  A    between atoms: _299  and  _302
REMARK  123  A    between atoms: _302  and  _303
REMARK  124  A    between atoms: _306  and  _308
REMARK  125  A    between atoms: _308  and  _309
REMARK  126  A    between atoms: _308  and  _311
REMARK  127  A    between atoms: _311  and  _312
REMARK  128  A    between atoms: _315  and  _317
REMARK  129  A    between atoms: _317  and  _318
REMARK  130  A    between atoms: _317  and  _320
REMARK  131  A    between atoms: _320  and  _321
REMARK  132  A    between atoms: _324  and  _326
REMARK  133  A    between atoms: _326  and  _327
REMARK  134  A    between atoms: _326  and  _329
REMARK  135  A    between atoms: _329  and  _330
REMARK  136  A    between atoms: _333  and  _335
REMARK  137  A    between atoms: _335  and  _336
REMARK  138  A    between atoms: _338  and  _340
REMARK  139  A    between atoms: _340  and  _341
REMARK  140  A    between atoms: _344  and  _346
REMARK  141  A    between atoms: _346  and  _347
REMARK  142  A    between atoms: _346  and  _349
REMARK  143  A    between atoms: _349  and  _350
REMARK  144  A    between atoms: _353  and  _355
REMARK  145  A    between atoms: _355  and  _356
REMARK  146  A    between atoms: _355  and  _358
REMARK  147  A    between atoms: _358  and  _359
REMARK  148  A    between atoms: _362  and  _364
REMARK  149  A    between atoms: _364  and  _365
REMARK  150  A    between atoms: _364  and  _367
REMARK  151  A    between atoms: _367  and  _368
REMARK  152  A    between atoms: _371  and  _373
REMARK  153  A    between atoms: _373  and  _374
REMARK  154  A    between atoms: _373  and  _376
REMARK  155  A    between atoms: _379  and  _381
REMARK  156  A    between atoms: _381  and  _382
REMARK  157  A    between atoms: _381  and  _384
REMARK  158  A    between atoms: _384  and  _385
REMARK  159  A    between atoms: _388  and  _390
REMARK  160  A    between atoms: _390  and  _391
REMARK  161  A    between atoms: _390  and  _393
REMARK  162  A    between atoms: _393  and  _394
REMARK  163  A    between atoms: _394  and  _395
REMARK  164  A    between atoms: _395  and  _396
REMARK  165  A    between atoms: _396  and  _397
REMARK  166  A    between atoms: _401  and  _403
REMARK  167  A    between atoms: _403  and  _404
REMARK  168  A    between atoms: _403  and  _406
REMARK  169  A    between atoms: _406  and  _407
REMARK  170  A    between atoms: _407  and  _408
REMARK  171  A    between atoms: _410  and  _412
REMARK  172  A    between atoms: _412  and  _413
REMARK  173  A    between atoms: _412  and  _415
REMARK  174  A    between atoms: _415  and  _416
REMARK  175  A    between atoms: _419  and  _421
REMARK  176  A    between atoms: _421  and  _422
REMARK  177  A    between atoms: _424  and  _426
REMARK  178  A    between atoms: _426  and  _427
REMARK  179  A    between atoms: _429  and  _431
REMARK  180  A    between atoms: _431  and  _432
REMARK  181  A    between atoms: _431  and  _434
REMARK  182  A    between atoms: _434  and  _435
REMARK  183  A    between atoms: _438  and  _440
REMARK  184  A    between atoms: _440  and  _441
REMARK  185  A    between atoms: _443  and  _445
REMARK  186  A    between atoms: _445  and  _446
REMARK  187  A    between atoms: _448  and  _450
REMARK  188  A    between atoms: _450  and  _451
REMARK  189  A    between atoms: _450  and  _453
REMARK  190  A    between atoms: _453  and  _454
REMARK  191  A    between atoms: _457  and  _459
REMARK  192  A    between atoms: _459  and  _460
REMARK  193  A    between atoms: _459  and  _462
REMARK  194  A    between atoms: _465  and  _467
REMARK  195  A    between atoms: _467  and  _468
REMARK  196  A    between atoms: _467  and  _470
REMARK  197  A    between atoms: _470  and  _471
REMARK  198  A    between atoms: _474  and  _476
REMARK  199  A    between atoms: _476  and  _477
REMARK  200  A    between atoms: _476  and  _479
REMARK  201  A    between atoms: _479  and  _480
REMARK  202  A    between atoms: _484  and  _485
REMARK  203  A    between atoms: _490  and  _492
REMARK  204  A    between atoms: _492  and  _493
REMARK  205  A    between atoms: _492  and  _495
REMARK  206  A    between atoms: _498  and  _500
REMARK  207  A    between atoms: _500  and  _501
REMARK  208  A    between atoms: _500  and  _503
REMARK  209  A    between atoms: _503  and  _504
REMARK  210  A    between atoms: _509  and  _511
REMARK  211  A    between atoms: _511  and  _512
REMARK  212  A    between atoms: _511  and  _514
REMARK  213  A    between atoms: _514  and  _515
REMARK  214  A    between atoms: _518  and  _520
REMARK  215  A    between atoms: _520  and  _521
REMARK  216  A    between atoms: _520  and  _523
REMARK  217  A    between atoms: _523  and  _524
REMARK  218  A    between atoms: _527  and  _529
REMARK  219  A    between atoms: _529  and  _530
REMARK  220  A    between atoms: _532  and  _534
REMARK  221  A    between atoms: _534  and  _535
REMARK  222  A    between atoms: _534  and  _537
REMARK  223  A    between atoms: _537  and  _538
REMARK  224  A    between atoms: _538  and  _539
REMARK  225  A    between atoms: _539  and  _540
REMARK  226  A    between atoms: _549  and  _551
REMARK  227  A    between atoms: _551  and  _552
REMARK  228  A    between atoms: _551  and  _554
REMARK  229  A    between atoms: _554  and  _555
REMARK                            x       y       z     vdW  Elec       q    Type
REMARK                         _______ _______ _______ _____ _____    ______ ____
ROOT
ATOM      1  O   HOH     1      21.601  34.775  21.596  0.00  0.00    +0.000 OA
ENDROOT
TORSDOF 0
