REMARK  Name = ../refined-set-2016/2zxd/2zxd_pocket.pdb
REMARK  159 active torsions:
REMARK  status: ('A' for Active; 'I' for Inactive)
REMARK    1  A    between atoms: _1  and  _3
REMARK    2  A    between atoms: _3  and  _4
REMARK    3  A    between atoms: _3  and  _6
REMARK    4  A    between atoms: _6  and  _7
REMARK    5  A    between atoms: _13  and  _15
REMARK    6  A    between atoms: _15  and  _16
REMARK    7  A    between atoms: _15  and  _18
REMARK    8  A    between atoms: _18  and  _19
REMARK    9  A    between atoms: _24  and  _26
REMARK   10  A    between atoms: _26  and  _27
REMARK   11  A    between atoms: _26  and  _29
REMARK   12  A    between atoms: _29  and  _30
REMARK   13  A    between atoms: _35  and  _36
REMARK   14  A    between atoms: _38  and  _40
REMARK   15  A    between atoms: _40  and  _41
REMARK   16  A    between atoms: _40  and  _43
REMARK   17  A    between atoms: _43  and  _44
REMARK   18  A    between atoms: _47  and  _49
REMARK   19  A    between atoms: _49  and  _50
REMARK   20  A    between atoms: _49  and  _52
REMARK   21  A    between atoms: _52  and  _53
REMARK   22  A    between atoms: _63  and  _65
REMARK   23  A    between atoms: _65  and  _66
REMARK   24  A    between atoms: _65  and  _68
REMARK   25  A    between atoms: _68  and  _69
REMARK   26  A    between atoms: _75  and  _77
REMARK   27  A    between atoms: _77  and  _78
REMARK   28  A    between atoms: _77  and  _80
REMARK   29  A    between atoms: _80  and  _81
REMARK   30  A    between atoms: _86  and  _88
REMARK   31  A    between atoms: _88  and  _89
REMARK   32  A    between atoms: _88  and  _91
REMARK   33  A    between atoms: _91  and  _92
REMARK   34  A    between atoms: _97  and  _98
REMARK   35  A    between atoms: _100  and  _102
REMARK   36  A    between atoms: _102  and  _103
REMARK   37  A    between atoms: _106  and  _108
REMARK   38  A    between atoms: _108  and  _109
REMARK   39  A    between atoms: _108  and  _111
REMARK   40  A    between atoms: _111  and  _112
REMARK   41  A    between atoms: _112  and  _113
REMARK   42  A    between atoms: _116  and  _118
REMARK   43  A    between atoms: _118  and  _119
REMARK   44  A    between atoms: _118  and  _121
REMARK   45  A    between atoms: _121  and  _122
REMARK   46  A    between atoms: _132  and  _134
REMARK   47  A    between atoms: _134  and  _135
REMARK   48  A    between atoms: _134  and  _137
REMARK   49  A    between atoms: _137  and  _138
REMARK   50  A    between atoms: _143  and  _144
REMARK   51  A    between atoms: _146  and  _148
REMARK   52  A    between atoms: _148  and  _149
REMARK   53  A    between atoms: _148  and  _151
REMARK   54  A    between atoms: _151  and  _152
REMARK   55  A    between atoms: _155  and  _157
REMARK   56  A    between atoms: _157  and  _158
REMARK   57  A    between atoms: _157  and  _160
REMARK   58  A    between atoms: _160  and  _161
REMARK   59  A    between atoms: _166  and  _168
REMARK   60  A    between atoms: _168  and  _169
REMARK   61  A    between atoms: _168  and  _171
REMARK   62  A    between atoms: _171  and  _172
REMARK   63  A    between atoms: _177  and  _179
REMARK   64  A    between atoms: _179  and  _180
REMARK   65  A    between atoms: _179  and  _182
REMARK   66  A    between atoms: _182  and  _183
REMARK   67  A    between atoms: _186  and  _188
REMARK   68  A    between atoms: _188  and  _189
REMARK   69  A    between atoms: _188  and  _191
REMARK   70  A    between atoms: _191  and  _192
REMARK   71  A    between atoms: _197  and  _198
REMARK   72  A    between atoms: _200  and  _202
REMARK   73  A    between atoms: _202  and  _203
REMARK   74  A    between atoms: _202  and  _205
REMARK   75  A    between atoms: _205  and  _206
REMARK   76  A    between atoms: _208  and  _210
REMARK   77  A    between atoms: _210  and  _211
REMARK   78  A    between atoms: _210  and  _213
REMARK   79  A    between atoms: _213  and  _214
REMARK   80  A    between atoms: _217  and  _219
REMARK   81  A    between atoms: _219  and  _220
REMARK   82  A    between atoms: _219  and  _222
REMARK   83  A    between atoms: _222  and  _223
REMARK   84  A    between atoms: _233  and  _235
REMARK   85  A    between atoms: _235  and  _236
REMARK   86  A    between atoms: _235  and  _238
REMARK   87  A    between atoms: _238  and  _239
REMARK   88  A    between atoms: _242  and  _244
REMARK   89  A    between atoms: _244  and  _245
REMARK   90  A    between atoms: _244  and  _247
REMARK   91  A    between atoms: _247  and  _248
REMARK   92  A    between atoms: _258  and  _260
REMARK   93  A    between atoms: _260  and  _261
REMARK   94  A    between atoms: _260  and  _263
REMARK   95  A    between atoms: _263  and  _264
REMARK   96  A    between atoms: _269  and  _271
REMARK   97  A    between atoms: _271  and  _272
REMARK   98  A    between atoms: _271  and  _274
REMARK   99  A    between atoms: _274  and  _275
REMARK  100  A    between atoms: _278  and  _280
REMARK  101  A    between atoms: _280  and  _281
REMARK  102  A    between atoms: _280  and  _283
REMARK  103  A    between atoms: _283  and  _284
REMARK  104  A    between atoms: _284  and  _285
REMARK  105  A    between atoms: _287  and  _289
REMARK  106  A    between atoms: _289  and  _290
REMARK  107  A    between atoms: _289  and  _292
REMARK  108  A    between atoms: _292  and  _293
REMARK  109  A    between atoms: _298  and  _300
REMARK  110  A    between atoms: _300  and  _301
REMARK  111  A    between atoms: _300  and  _303
REMARK  112  A    between atoms: _303  and  _304
REMARK  113  A    between atoms: _304  and  _305
REMARK  114  A    between atoms: _305  and  _306
REMARK  115  A    between atoms: _315  and  _317
REMARK  116  A    between atoms: _317  and  _318
REMARK  117  A    between atoms: _317  and  _320
REMARK  118  A    between atoms: _320  and  _321
REMARK  119  A    between atoms: _324  and  _326
REMARK  120  A    between atoms: _326  and  _327
REMARK  121  A    between atoms: _330  and  _332
REMARK  122  A    between atoms: _332  and  _333
REMARK  123  A    between atoms: _332  and  _335
REMARK  124  A    between atoms: _335  and  _336
REMARK  125  A    between atoms: _336  and  _337
REMARK  126  A    between atoms: _340  and  _342
REMARK  127  A    between atoms: _342  and  _343
REMARK  128  A    between atoms: _342  and  _345
REMARK  129  A    between atoms: _345  and  _346
REMARK  130  A    between atoms: _351  and  _353
REMARK  131  A    between atoms: _353  and  _354
REMARK  132  A    between atoms: _353  and  _356
REMARK  133  A    between atoms: _356  and  _357
REMARK  134  A    between atoms: _360  and  _362
REMARK  135  A    between atoms: _362  and  _363
REMARK  136  A    between atoms: _362  and  _365
REMARK  137  A    between atoms: _365  and  _366
REMARK  138  A    between atoms: _366  and  _367
REMARK  139  A    between atoms: _367  and  _368
REMARK  140  A    between atoms: _377  and  _379
REMARK  141  A    between atoms: _379  and  _380
REMARK  142  A    between atoms: _382  and  _384
REMARK  143  A    between atoms: _384  and  _385
REMARK  144  A    between atoms: _384  and  _387
REMARK  145  A    between atoms: _387  and  _388
REMARK  146  A    between atoms: _390  and  _392
REMARK  147  A    between atoms: _392  and  _393
REMARK  148  A    between atoms: _392  and  _395
REMARK  149  A    between atoms: _395  and  _396
REMARK  150  A    between atoms: _402  and  _404
REMARK  151  A    between atoms: _404  and  _405
REMARK  152  A    between atoms: _407  and  _409
REMARK  153  A    between atoms: _409  and  _410
REMARK  154  A    between atoms: _409  and  _412
REMARK  155  A    between atoms: _412  and  _413
REMARK  156  A    between atoms: _416  and  _418
REMARK  157  A    between atoms: _418  and  _419
REMARK  158  A    between atoms: _418  and  _421
REMARK  159  A    between atoms: _421  and  _422
REMARK                            x       y       z     vdW  Elec       q    Type
REMARK                         _______ _______ _______ _____ _____    ______ ____
ROOT
ATOM      1  CB  PHE A   1       7.299  31.725  22.343  0.00  0.00    +0.051 C 
ENDROOT
BRANCH   1   2
ATOM      2  CG  PHE A   1       6.874  30.459  23.053  0.00  0.00    -0.020 A 
ATOM      3  CD2 PHE A   1       6.070  30.547  24.221  0.00  0.00    -0.004 A 
ATOM      4  CE2 PHE A   1       5.700  29.417  24.945  0.00  0.00    -0.000 A 
ATOM      5  CZ  PHE A   1       6.131  28.134  24.509  0.00  0.00    -0.000 A 
ATOM      6  CE1 PHE A   1       6.933  28.014  23.332  0.00  0.00    -0.000 A 
ATOM      7  CD1 PHE A   1       7.295  29.209  22.609  0.00  0.00    -0.004 A 
ENDBRANCH   1   2
BRANCH   1   8
ATOM      8  CA  PHE A   1       8.475  31.559  21.345  0.00  0.00    +0.137 C 
BRANCH   8   9
ATOM      9  N   PHE A   1       9.353  32.687  21.548  0.00  0.00    -0.239 NA
ATOM     10  H   PHE A   1       8.941  33.576  21.895  0.00  0.00    +0.142 HD
ENDBRANCH   8   9
BRANCH   8  11
ATOM     11  C   PHE A   1       7.913  31.771  19.905  0.00  0.00    +0.224 C 
ATOM     12  O   PHE A   1       7.710  32.918  19.459  0.00  0.00    -0.287 OA
ENDBRANCH   8  11
ENDBRANCH   1   8
TORSDOF 4
REMARK  Name = ../refined-set-2016/2zxd/2zxd_pocket.pdb
REMARK  159 active torsions:
REMARK  status: ('A' for Active; 'I' for Inactive)
REMARK    1  A    between atoms: _1  and  _3
REMARK    2  A    between atoms: _3  and  _4
REMARK    3  A    between atoms: _3  and  _6
REMARK    4  A    between atoms: _6  and  _7
REMARK    5  A    between atoms: _13  and  _15
REMARK    6  A    between atoms: _15  and  _16
REMARK    7  A    between atoms: _15  and  _18
REMARK    8  A    between atoms: _18  and  _19
REMARK    9  A    between atoms: _24  and  _26
REMARK   10  A    between atoms: _26  and  _27
REMARK   11  A    between atoms: _26  and  _29
REMARK   12  A    between atoms: _29  and  _30
REMARK   13  A    between atoms: _35  and  _36
REMARK   14  A    between atoms: _38  and  _40
REMARK   15  A    between atoms: _40  and  _41
REMARK   16  A    between atoms: _40  and  _43
REMARK   17  A    between atoms: _43  and  _44
REMARK   18  A    between atoms: _47  and  _49
REMARK   19  A    between atoms: _49  and  _50
REMARK   20  A    between atoms: _49  and  _52
REMARK   21  A    between atoms: _52  and  _53
REMARK   22  A    between atoms: _63  and  _65
REMARK   23  A    between atoms: _65  and  _66
REMARK   24  A    between atoms: _65  and  _68
REMARK   25  A    between atoms: _68  and  _69
REMARK   26  A    between atoms: _75  and  _77
REMARK   27  A    between atoms: _77  and  _78
REMARK   28  A    between atoms: _77  and  _80
REMARK   29  A    between atoms: _80  and  _81
REMARK   30  A    between atoms: _86  and  _88
REMARK   31  A    between atoms: _88  and  _89
REMARK   32  A    between atoms: _88  and  _91
REMARK   33  A    between atoms: _91  and  _92
REMARK   34  A    between atoms: _97  and  _98
REMARK   35  A    between atoms: _100  and  _102
REMARK   36  A    between atoms: _102  and  _103
REMARK   37  A    between atoms: _106  and  _108
REMARK   38  A    between atoms: _108  and  _109
REMARK   39  A    between atoms: _108  and  _111
REMARK   40  A    between atoms: _111  and  _112
REMARK   41  A    between atoms: _112  and  _113
REMARK   42  A    between atoms: _116  and  _118
REMARK   43  A    between atoms: _118  and  _119
REMARK   44  A    between atoms: _118  and  _121
REMARK   45  A    between atoms: _121  and  _122
REMARK   46  A    between atoms: _132  and  _134
REMARK   47  A    between atoms: _134  and  _135
REMARK   48  A    between atoms: _134  and  _137
REMARK   49  A    between atoms: _137  and  _138
REMARK   50  A    between atoms: _143  and  _144
REMARK   51  A    between atoms: _146  and  _148
REMARK   52  A    between atoms: _148  and  _149
REMARK   53  A    between atoms: _148  and  _151
REMARK   54  A    between atoms: _151  and  _152
REMARK   55  A    between atoms: _155  and  _157
REMARK   56  A    between atoms: _157  and  _158
REMARK   57  A    between atoms: _157  and  _160
REMARK   58  A    between atoms: _160  and  _161
REMARK   59  A    between atoms: _166  and  _168
REMARK   60  A    between atoms: _168  and  _169
REMARK   61  A    between atoms: _168  and  _171
REMARK   62  A    between atoms: _171  and  _172
REMARK   63  A    between atoms: _177  and  _179
REMARK   64  A    between atoms: _179  and  _180
REMARK   65  A    between atoms: _179  and  _182
REMARK   66  A    between atoms: _182  and  _183
REMARK   67  A    between atoms: _186  and  _188
REMARK   68  A    between atoms: _188  and  _189
REMARK   69  A    between atoms: _188  and  _191
REMARK   70  A    between atoms: _191  and  _192
REMARK   71  A    between atoms: _197  and  _198
REMARK   72  A    between atoms: _200  and  _202
REMARK   73  A    between atoms: _202  and  _203
REMARK   74  A    between atoms: _202  and  _205
REMARK   75  A    between atoms: _205  and  _206
REMARK   76  A    between atoms: _208  and  _210
REMARK   77  A    between atoms: _210  and  _211
REMARK   78  A    between atoms: _210  and  _213
REMARK   79  A    between atoms: _213  and  _214
REMARK   80  A    between atoms: _217  and  _219
REMARK   81  A    between atoms: _219  and  _220
REMARK   82  A    between atoms: _219  and  _222
REMARK   83  A    between atoms: _222  and  _223
REMARK   84  A    between atoms: _233  and  _235
REMARK   85  A    between atoms: _235  and  _236
REMARK   86  A    between atoms: _235  and  _238
REMARK   87  A    between atoms: _238  and  _239
REMARK   88  A    between atoms: _242  and  _244
REMARK   89  A    between atoms: _244  and  _245
REMARK   90  A    between atoms: _244  and  _247
REMARK   91  A    between atoms: _247  and  _248
REMARK   92  A    between atoms: _258  and  _260
REMARK   93  A    between atoms: _260  and  _261
REMARK   94  A    between atoms: _260  and  _263
REMARK   95  A    between atoms: _263  and  _264
REMARK   96  A    between atoms: _269  and  _271
REMARK   97  A    between atoms: _271  and  _272
REMARK   98  A    between atoms: _271  and  _274
REMARK   99  A    between atoms: _274  and  _275
REMARK  100  A    between atoms: _278  and  _280
REMARK  101  A    between atoms: _280  and  _281
REMARK  102  A    between atoms: _280  and  _283
REMARK  103  A    between atoms: _283  and  _284
REMARK  104  A    between atoms: _284  and  _285
REMARK  105  A    between atoms: _287  and  _289
REMARK  106  A    between atoms: _289  and  _290
REMARK  107  A    between atoms: _289  and  _292
REMARK  108  A    between atoms: _292  and  _293
REMARK  109  A    between atoms: _298  and  _300
REMARK  110  A    between atoms: _300  and  _301
REMARK  111  A    between atoms: _300  and  _303
REMARK  112  A    between atoms: _303  and  _304
REMARK  113  A    between atoms: _304  and  _305
REMARK  114  A    between atoms: _305  and  _306
REMARK  115  A    between atoms: _315  and  _317
REMARK  116  A    between atoms: _317  and  _318
REMARK  117  A    between atoms: _317  and  _320
REMARK  118  A    between atoms: _320  and  _321
REMARK  119  A    between atoms: _324  and  _326
REMARK  120  A    between atoms: _326  and  _327
REMARK  121  A    between atoms: _330  and  _332
REMARK  122  A    between atoms: _332  and  _333
REMARK  123  A    between atoms: _332  and  _335
REMARK  124  A    between atoms: _335  and  _336
REMARK  125  A    between atoms: _336  and  _337
REMARK  126  A    between atoms: _340  and  _342
REMARK  127  A    between atoms: _342  and  _343
REMARK  128  A    between atoms: _342  and  _345
REMARK  129  A    between atoms: _345  and  _346
REMARK  130  A    between atoms: _351  and  _353
REMARK  131  A    between atoms: _353  and  _354
REMARK  132  A    between atoms: _353  and  _356
REMARK  133  A    between atoms: _356  and  _357
REMARK  134  A    between atoms: _360  and  _362
REMARK  135  A    between atoms: _362  and  _363
REMARK  136  A    between atoms: _362  and  _365
REMARK  137  A    between atoms: _365  and  _366
REMARK  138  A    between atoms: _366  and  _367
REMARK  139  A    between atoms: _367  and  _368
REMARK  140  A    between atoms: _377  and  _379
REMARK  141  A    between atoms: _379  and  _380
REMARK  142  A    between atoms: _382  and  _384
REMARK  143  A    between atoms: _384  and  _385
REMARK  144  A    between atoms: _384  and  _387
REMARK  145  A    between atoms: _387  and  _388
REMARK  146  A    between atoms: _390  and  _392
REMARK  147  A    between atoms: _392  and  _393
REMARK  148  A    between atoms: _392  and  _395
REMARK  149  A    between atoms: _395  and  _396
REMARK  150  A    between atoms: _402  and  _404
REMARK  151  A    between atoms: _404  and  _405
REMARK  152  A    between atoms: _407  and  _409
REMARK  153  A    between atoms: _409  and  _410
REMARK  154  A    between atoms: _409  and  _412
REMARK  155  A    between atoms: _412  and  _413
REMARK  156  A    between atoms: _416  and  _418
REMARK  157  A    between atoms: _418  and  _419
REMARK  158  A    between atoms: _418  and  _421
REMARK  159  A    between atoms: _421  and  _422
REMARK                            x       y       z     vdW  Elec       q    Type
REMARK                         _______ _______ _______ _____ _____    ______ ____
ROOT
ATOM      1  CB  HIS A   1       2.216  29.748  18.232  0.00  0.00    +0.072 C 
ENDROOT
BRANCH   1   2
ATOM      2  CG  HIS A   1       2.323  29.303  19.676  0.00  0.00    +0.082 A 
ATOM      3  ND1 HIS A   1       3.337  29.728  20.516  0.00  0.00    -0.227 NA
ATOM      4  CE1 HIS A   1       3.183  29.188  21.718  0.00  0.00    +0.199 A 
ATOM      5  NE2 HIS A   1       2.103  28.425  21.692  0.00  0.00    -0.221 NA
ATOM      6  CD2 HIS A   1       1.549  28.472  20.423  0.00  0.00    +0.115 A 
ENDBRANCH   1   2
BRANCH   1   7
ATOM      7  CA  HIS A   1       3.485  29.459  17.410  0.00  0.00    +0.139 C 
BRANCH   7   8
ATOM      8  N   HIS A   1       4.597  30.364  17.721  0.00  0.00    -0.239 NA
ATOM      9  H   HIS A   1       4.419  31.363  17.947  0.00  0.00    +0.142 HD
ENDBRANCH   7   8
BRANCH   7  10
ATOM     10  C   HIS A   1       3.235  29.642  15.927  0.00  0.00    +0.224 C 
ATOM     11  O   HIS A   1       2.767  30.709  15.460  0.00  0.00    -0.287 OA
ENDBRANCH   7  10
ENDBRANCH   1   7
TORSDOF 4
REMARK  Name = ../refined-set-2016/2zxd/2zxd_pocket.pdb
REMARK  159 active torsions:
REMARK  status: ('A' for Active; 'I' for Inactive)
REMARK    1  A    between atoms: _1  and  _3
REMARK    2  A    between atoms: _3  and  _4
REMARK    3  A    between atoms: _3  and  _6
REMARK    4  A    between atoms: _6  and  _7
REMARK    5  A    between atoms: _13  and  _15
REMARK    6  A    between atoms: _15  and  _16
REMARK    7  A    between atoms: _15  and  _18
REMARK    8  A    between atoms: _18  and  _19
REMARK    9  A    between atoms: _24  and  _26
REMARK   10  A    between atoms: _26  and  _27
REMARK   11  A    between atoms: _26  and  _29
REMARK   12  A    between atoms: _29  and  _30
REMARK   13  A    between atoms: _35  and  _36
REMARK   14  A    between atoms: _38  and  _40
REMARK   15  A    between atoms: _40  and  _41
REMARK   16  A    between atoms: _40  and  _43
REMARK   17  A    between atoms: _43  and  _44
REMARK   18  A    between atoms: _47  and  _49
REMARK   19  A    between atoms: _49  and  _50
REMARK   20  A    between atoms: _49  and  _52
REMARK   21  A    between atoms: _52  and  _53
REMARK   22  A    between atoms: _63  and  _65
REMARK   23  A    between atoms: _65  and  _66
REMARK   24  A    between atoms: _65  and  _68
REMARK   25  A    between atoms: _68  and  _69
REMARK   26  A    between atoms: _75  and  _77
REMARK   27  A    between atoms: _77  and  _78
REMARK   28  A    between atoms: _77  and  _80
REMARK   29  A    between atoms: _80  and  _81
REMARK   30  A    between atoms: _86  and  _88
REMARK   31  A    between atoms: _88  and  _89
REMARK   32  A    between atoms: _88  and  _91
REMARK   33  A    between atoms: _91  and  _92
REMARK   34  A    between atoms: _97  and  _98
REMARK   35  A    between atoms: _100  and  _102
REMARK   36  A    between atoms: _102  and  _103
REMARK   37  A    between atoms: _106  and  _108
REMARK   38  A    between atoms: _108  and  _109
REMARK   39  A    between atoms: _108  and  _111
REMARK   40  A    between atoms: _111  and  _112
REMARK   41  A    between atoms: _112  and  _113
REMARK   42  A    between atoms: _116  and  _118
REMARK   43  A    between atoms: _118  and  _119
REMARK   44  A    between atoms: _118  and  _121
REMARK   45  A    between atoms: _121  and  _122
REMARK   46  A    between atoms: _132  and  _134
REMARK   47  A    between atoms: _134  and  _135
REMARK   48  A    between atoms: _134  and  _137
REMARK   49  A    between atoms: _137  and  _138
REMARK   50  A    between atoms: _143  and  _144
REMARK   51  A    between atoms: _146  and  _148
REMARK   52  A    between atoms: _148  and  _149
REMARK   53  A    between atoms: _148  and  _151
REMARK   54  A    between atoms: _151  and  _152
REMARK   55  A    between atoms: _155  and  _157
REMARK   56  A    between atoms: _157  and  _158
REMARK   57  A    between atoms: _157  and  _160
REMARK   58  A    between atoms: _160  and  _161
REMARK   59  A    between atoms: _166  and  _168
REMARK   60  A    between atoms: _168  and  _169
REMARK   61  A    between atoms: _168  and  _171
REMARK   62  A    between atoms: _171  and  _172
REMARK   63  A    between atoms: _177  and  _179
REMARK   64  A    between atoms: _179  and  _180
REMARK   65  A    between atoms: _179  and  _182
REMARK   66  A    between atoms: _182  and  _183
REMARK   67  A    between atoms: _186  and  _188
REMARK   68  A    between atoms: _188  and  _189
REMARK   69  A    between atoms: _188  and  _191
REMARK   70  A    between atoms: _191  and  _192
REMARK   71  A    between atoms: _197  and  _198
REMARK   72  A    between atoms: _200  and  _202
REMARK   73  A    between atoms: _202  and  _203
REMARK   74  A    between atoms: _202  and  _205
REMARK   75  A    between atoms: _205  and  _206
REMARK   76  A    between atoms: _208  and  _210
REMARK   77  A    between atoms: _210  and  _211
REMARK   78  A    between atoms: _210  and  _213
REMARK   79  A    between atoms: _213  and  _214
REMARK   80  A    between atoms: _217  and  _219
REMARK   81  A    between atoms: _219  and  _220
REMARK   82  A    between atoms: _219  and  _222
REMARK   83  A    between atoms: _222  and  _223
REMARK   84  A    between atoms: _233  and  _235
REMARK   85  A    between atoms: _235  and  _236
REMARK   86  A    between atoms: _235  and  _238
REMARK   87  A    between atoms: _238  and  _239
REMARK   88  A    between atoms: _242  and  _244
REMARK   89  A    between atoms: _244  and  _245
REMARK   90  A    between atoms: _244  and  _247
REMARK   91  A    between atoms: _247  and  _248
REMARK   92  A    between atoms: _258  and  _260
REMARK   93  A    between atoms: _260  and  _261
REMARK   94  A    between atoms: _260  and  _263
REMARK   95  A    between atoms: _263  and  _264
REMARK   96  A    between atoms: _269  and  _271
REMARK   97  A    between atoms: _271  and  _272
REMARK   98  A    between atoms: _271  and  _274
REMARK   99  A    between atoms: _274  and  _275
REMARK  100  A    between atoms: _278  and  _280
REMARK  101  A    between atoms: _280  and  _281
REMARK  102  A    between atoms: _280  and  _283
REMARK  103  A    between atoms: _283  and  _284
REMARK  104  A    between atoms: _284  and  _285
REMARK  105  A    between atoms: _287  and  _289
REMARK  106  A    between atoms: _289  and  _290
REMARK  107  A    between atoms: _289  and  _292
REMARK  108  A    between atoms: _292  and  _293
REMARK  109  A    between atoms: _298  and  _300
REMARK  110  A    between atoms: _300  and  _301
REMARK  111  A    between atoms: _300  and  _303
REMARK  112  A    between atoms: _303  and  _304
REMARK  113  A    between atoms: _304  and  _305
REMARK  114  A    between atoms: _305  and  _306
REMARK  115  A    between atoms: _315  and  _317
REMARK  116  A    between atoms: _317  and  _318
REMARK  117  A    between atoms: _317  and  _320
REMARK  118  A    between atoms: _320  and  _321
REMARK  119  A    between atoms: _324  and  _326
REMARK  120  A    between atoms: _326  and  _327
REMARK  121  A    between atoms: _330  and  _332
REMARK  122  A    between atoms: _332  and  _333
REMARK  123  A    between atoms: _332  and  _335
REMARK  124  A    between atoms: _335  and  _336
REMARK  125  A    between atoms: _336  and  _337
REMARK  126  A    between atoms: _340  and  _342
REMARK  127  A    between atoms: _342  and  _343
REMARK  128  A    between atoms: _342  and  _345
REMARK  129  A    between atoms: _345  and  _346
REMARK  130  A    between atoms: _351  and  _353
REMARK  131  A    between atoms: _353  and  _354
REMARK  132  A    between atoms: _353  and  _356
REMARK  133  A    between atoms: _356  and  _357
REMARK  134  A    between atoms: _360  and  _362
REMARK  135  A    between atoms: _362  and  _363
REMARK  136  A    between atoms: _362  and  _365
REMARK  137  A    between atoms: _365  and  _366
REMARK  138  A    between atoms: _366  and  _367
REMARK  139  A    between atoms: _367  and  _368
REMARK  140  A    between atoms: _377  and  _379
REMARK  141  A    between atoms: _379  and  _380
REMARK  142  A    between atoms: _382  and  _384
REMARK  143  A    between atoms: _384  and  _385
REMARK  144  A    between atoms: _384  and  _387
REMARK  145  A    between atoms: _387  and  _388
REMARK  146  A    between atoms: _390  and  _392
REMARK  147  A    between atoms: _392  and  _393
REMARK  148  A    between atoms: _392  and  _395
REMARK  149  A    between atoms: _395  and  _396
REMARK  150  A    between atoms: _402  and  _404
REMARK  151  A    between atoms: _404  and  _405
REMARK  152  A    between atoms: _407  and  _409
REMARK  153  A    between atoms: _409  and  _410
REMARK  154  A    between atoms: _409  and  _412
REMARK  155  A    between atoms: _412  and  _413
REMARK  156  A    between atoms: _416  and  _418
REMARK  157  A    between atoms: _418  and  _419
REMARK  158  A    between atoms: _418  and  _421
REMARK  159  A    between atoms: _421  and  _422
REMARK                            x       y       z     vdW  Elec       q    Type
REMARK                         _______ _______ _______ _____ _____    ______ ____
ROOT
ATOM      1  CG  TYR A   1      -2.576  27.126  14.029  0.00  0.00    -0.020 A 
ATOM      2  CD2 TYR A   1      -2.085  25.862  14.460  0.00  0.00    -0.001 A 
ATOM      3  CE2 TYR A   1      -0.868  25.755  15.131  0.00  0.00    +0.036 A 
ATOM      4  CZ  TYR A   1      -0.123  26.909  15.416  0.00  0.00    +0.134 A 
ATOM      5  CE1 TYR A   1      -0.591  28.184  15.010  0.00  0.00    +0.036 A 
ATOM      6  CD1 TYR A   1      -1.809  28.274  14.306  0.00  0.00    -0.001 A 
ENDROOT
BRANCH   4   7
ATOM      7  OH  TYR A   1       1.080  26.780  16.096  0.00  0.00    -0.506 OA
ATOM      8  HH  TYR A   1       1.695  26.209  15.571  0.00  0.00    +0.292 HD
ENDBRANCH   4   7
BRANCH   1   9
ATOM      9  CB  TYR A   1      -3.891  27.226  13.293  0.00  0.00    +0.051 C 
BRANCH   9  10
ATOM     10  CA  TYR A   1      -3.755  27.396  11.772  0.00  0.00    +0.137 C 
BRANCH  10  11
ATOM     11  N   TYR A   1      -2.780  26.454  11.252  0.00  0.00    -0.239 NA
ATOM     12  H   TYR A   1      -2.222  25.872  11.909  0.00  0.00    +0.142 HD
ENDBRANCH  10  11
BRANCH  10  13
ATOM     13  C   TYR A   1      -3.306  28.821  11.444  0.00  0.00    +0.224 C 
ATOM     14  O   TYR A   1      -4.072  29.771  11.536  0.00  0.00    -0.287 OA
ENDBRANCH  10  13
ENDBRANCH   9  10
ENDBRANCH   1   9
TORSDOF 5
REMARK  Name = ../refined-set-2016/2zxd/2zxd_pocket.pdb
REMARK  159 active torsions:
REMARK  status: ('A' for Active; 'I' for Inactive)
REMARK    1  A    between atoms: _1  and  _3
REMARK    2  A    between atoms: _3  and  _4
REMARK    3  A    between atoms: _3  and  _6
REMARK    4  A    between atoms: _6  and  _7
REMARK    5  A    between atoms: _13  and  _15
REMARK    6  A    between atoms: _15  and  _16
REMARK    7  A    between atoms: _15  and  _18
REMARK    8  A    between atoms: _18  and  _19
REMARK    9  A    between atoms: _24  and  _26
REMARK   10  A    between atoms: _26  and  _27
REMARK   11  A    between atoms: _26  and  _29
REMARK   12  A    between atoms: _29  and  _30
REMARK   13  A    between atoms: _35  and  _36
REMARK   14  A    between atoms: _38  and  _40
REMARK   15  A    between atoms: _40  and  _41
REMARK   16  A    between atoms: _40  and  _43
REMARK   17  A    between atoms: _43  and  _44
REMARK   18  A    between atoms: _47  and  _49
REMARK   19  A    between atoms: _49  and  _50
REMARK   20  A    between atoms: _49  and  _52
REMARK   21  A    between atoms: _52  and  _53
REMARK   22  A    between atoms: _63  and  _65
REMARK   23  A    between atoms: _65  and  _66
REMARK   24  A    between atoms: _65  and  _68
REMARK   25  A    between atoms: _68  and  _69
REMARK   26  A    between atoms: _75  and  _77
REMARK   27  A    between atoms: _77  and  _78
REMARK   28  A    between atoms: _77  and  _80
REMARK   29  A    between atoms: _80  and  _81
REMARK   30  A    between atoms: _86  and  _88
REMARK   31  A    between atoms: _88  and  _89
REMARK   32  A    between atoms: _88  and  _91
REMARK   33  A    between atoms: _91  and  _92
REMARK   34  A    between atoms: _97  and  _98
REMARK   35  A    between atoms: _100  and  _102
REMARK   36  A    between atoms: _102  and  _103
REMARK   37  A    between atoms: _106  and  _108
REMARK   38  A    between atoms: _108  and  _109
REMARK   39  A    between atoms: _108  and  _111
REMARK   40  A    between atoms: _111  and  _112
REMARK   41  A    between atoms: _112  and  _113
REMARK   42  A    between atoms: _116  and  _118
REMARK   43  A    between atoms: _118  and  _119
REMARK   44  A    between atoms: _118  and  _121
REMARK   45  A    between atoms: _121  and  _122
REMARK   46  A    between atoms: _132  and  _134
REMARK   47  A    between atoms: _134  and  _135
REMARK   48  A    between atoms: _134  and  _137
REMARK   49  A    between atoms: _137  and  _138
REMARK   50  A    between atoms: _143  and  _144
REMARK   51  A    between atoms: _146  and  _148
REMARK   52  A    between atoms: _148  and  _149
REMARK   53  A    between atoms: _148  and  _151
REMARK   54  A    between atoms: _151  and  _152
REMARK   55  A    between atoms: _155  and  _157
REMARK   56  A    between atoms: _157  and  _158
REMARK   57  A    between atoms: _157  and  _160
REMARK   58  A    between atoms: _160  and  _161
REMARK   59  A    between atoms: _166  and  _168
REMARK   60  A    between atoms: _168  and  _169
REMARK   61  A    between atoms: _168  and  _171
REMARK   62  A    between atoms: _171  and  _172
REMARK   63  A    between atoms: _177  and  _179
REMARK   64  A    between atoms: _179  and  _180
REMARK   65  A    between atoms: _179  and  _182
REMARK   66  A    between atoms: _182  and  _183
REMARK   67  A    between atoms: _186  and  _188
REMARK   68  A    between atoms: _188  and  _189
REMARK   69  A    between atoms: _188  and  _191
REMARK   70  A    between atoms: _191  and  _192
REMARK   71  A    between atoms: _197  and  _198
REMARK   72  A    between atoms: _200  and  _202
REMARK   73  A    between atoms: _202  and  _203
REMARK   74  A    between atoms: _202  and  _205
REMARK   75  A    between atoms: _205  and  _206
REMARK   76  A    between atoms: _208  and  _210
REMARK   77  A    between atoms: _210  and  _211
REMARK   78  A    between atoms: _210  and  _213
REMARK   79  A    between atoms: _213  and  _214
REMARK   80  A    between atoms: _217  and  _219
REMARK   81  A    between atoms: _219  and  _220
REMARK   82  A    between atoms: _219  and  _222
REMARK   83  A    between atoms: _222  and  _223
REMARK   84  A    between atoms: _233  and  _235
REMARK   85  A    between atoms: _235  and  _236
REMARK   86  A    between atoms: _235  and  _238
REMARK   87  A    between atoms: _238  and  _239
REMARK   88  A    between atoms: _242  and  _244
REMARK   89  A    between atoms: _244  and  _245
REMARK   90  A    between atoms: _244  and  _247
REMARK   91  A    between atoms: _247  and  _248
REMARK   92  A    between atoms: _258  and  _260
REMARK   93  A    between atoms: _260  and  _261
REMARK   94  A    between atoms: _260  and  _263
REMARK   95  A    between atoms: _263  and  _264
REMARK   96  A    between atoms: _269  and  _271
REMARK   97  A    between atoms: _271  and  _272
REMARK   98  A    between atoms: _271  and  _274
REMARK   99  A    between atoms: _274  and  _275
REMARK  100  A    between atoms: _278  and  _280
REMARK  101  A    between atoms: _280  and  _281
REMARK  102  A    between atoms: _280  and  _283
REMARK  103  A    between atoms: _283  and  _284
REMARK  104  A    between atoms: _284  and  _285
REMARK  105  A    between atoms: _287  and  _289
REMARK  106  A    between atoms: _289  and  _290
REMARK  107  A    between atoms: _289  and  _292
REMARK  108  A    between atoms: _292  and  _293
REMARK  109  A    between atoms: _298  and  _300
REMARK  110  A    between atoms: _300  and  _301
REMARK  111  A    between atoms: _300  and  _303
REMARK  112  A    between atoms: _303  and  _304
REMARK  113  A    between atoms: _304  and  _305
REMARK  114  A    between atoms: _305  and  _306
REMARK  115  A    between atoms: _315  and  _317
REMARK  116  A    between atoms: _317  and  _318
REMARK  117  A    between atoms: _317  and  _320
REMARK  118  A    between atoms: _320  and  _321
REMARK  119  A    between atoms: _324  and  _326
REMARK  120  A    between atoms: _326  and  _327
REMARK  121  A    between atoms: _330  and  _332
REMARK  122  A    between atoms: _332  and  _333
REMARK  123  A    between atoms: _332  and  _335
REMARK  124  A    between atoms: _335  and  _336
REMARK  125  A    between atoms: _336  and  _337
REMARK  126  A    between atoms: _340  and  _342
REMARK  127  A    between atoms: _342  and  _343
REMARK  128  A    between atoms: _342  and  _345
REMARK  129  A    between atoms: _345  and  _346
REMARK  130  A    between atoms: _351  and  _353
REMARK  131  A    between atoms: _353  and  _354
REMARK  132  A    between atoms: _353  and  _356
REMARK  133  A    between atoms: _356  and  _357
REMARK  134  A    between atoms: _360  and  _362
REMARK  135  A    between atoms: _362  and  _363
REMARK  136  A    between atoms: _362  and  _365
REMARK  137  A    between atoms: _365  and  _366
REMARK  138  A    between atoms: _366  and  _367
REMARK  139  A    between atoms: _367  and  _368
REMARK  140  A    between atoms: _377  and  _379
REMARK  141  A    between atoms: _379  and  _380
REMARK  142  A    between atoms: _382  and  _384
REMARK  143  A    between atoms: _384  and  _385
REMARK  144  A    between atoms: _384  and  _387
REMARK  145  A    between atoms: _387  and  _388
REMARK  146  A    between atoms: _390  and  _392
REMARK  147  A    between atoms: _392  and  _393
REMARK  148  A    between atoms: _392  and  _395
REMARK  149  A    between atoms: _395  and  _396
REMARK  150  A    between atoms: _402  and  _404
REMARK  151  A    between atoms: _404  and  _405
REMARK  152  A    between atoms: _407  and  _409
REMARK  153  A    between atoms: _409  and  _410
REMARK  154  A    between atoms: _409  and  _412
REMARK  155  A    between atoms: _412  and  _413
REMARK  156  A    between atoms: _416  and  _418
REMARK  157  A    between atoms: _418  and  _419
REMARK  158  A    between atoms: _418  and  _421
REMARK  159  A    between atoms: _421  and  _422
REMARK                            x       y       z     vdW  Elec       q    Type
REMARK                         _______ _______ _______ _____ _____    ______ ____
ROOT
ATOM      1  CA  LEU A   1      -6.596  34.733  30.009  0.00  0.00    +0.133 C 
ENDROOT
BRANCH   1   2
ATOM      2  N   LEU A   1      -6.192  35.902  29.233  0.00  0.00    -0.239 NA
ATOM      3  H   LEU A   1      -5.286  35.889  28.722  0.00  0.00    +0.142 HD
ENDBRANCH   1   2
BRANCH   1   4
ATOM      4  C   LEU A   1      -6.593  35.197  31.470  0.00  0.00    +0.224 C 
ATOM      5  O   LEU A   1      -5.722  35.975  31.877  0.00  0.00    -0.287 OA
ENDBRANCH   1   4
BRANCH   1   6
ATOM      6  CB  LEU A   1      -5.600  33.578  29.815  0.00  0.00    +0.025 C 
BRANCH   6   7
ATOM      7  CG  LEU A   1      -5.941  32.189  30.385  0.00  0.00    +0.002 C 
ATOM      8  CD2 LEU A   1      -4.692  31.342  30.305  0.00  0.00    +0.000 C 
ATOM      9  CD1 LEU A   1      -7.067  31.513  29.608  0.00  0.00    +0.000 C 
ENDBRANCH   6   7
ENDBRANCH   1   6
TORSDOF 4
REMARK  Name = ../refined-set-2016/2zxd/2zxd_pocket.pdb
REMARK  159 active torsions:
REMARK  status: ('A' for Active; 'I' for Inactive)
REMARK    1  A    between atoms: _1  and  _3
REMARK    2  A    between atoms: _3  and  _4
REMARK    3  A    between atoms: _3  and  _6
REMARK    4  A    between atoms: _6  and  _7
REMARK    5  A    between atoms: _13  and  _15
REMARK    6  A    between atoms: _15  and  _16
REMARK    7  A    between atoms: _15  and  _18
REMARK    8  A    between atoms: _18  and  _19
REMARK    9  A    between atoms: _24  and  _26
REMARK   10  A    between atoms: _26  and  _27
REMARK   11  A    between atoms: _26  and  _29
REMARK   12  A    between atoms: _29  and  _30
REMARK   13  A    between atoms: _35  and  _36
REMARK   14  A    between atoms: _38  and  _40
REMARK   15  A    between atoms: _40  and  _41
REMARK   16  A    between atoms: _40  and  _43
REMARK   17  A    between atoms: _43  and  _44
REMARK   18  A    between atoms: _47  and  _49
REMARK   19  A    between atoms: _49  and  _50
REMARK   20  A    between atoms: _49  and  _52
REMARK   21  A    between atoms: _52  and  _53
REMARK   22  A    between atoms: _63  and  _65
REMARK   23  A    between atoms: _65  and  _66
REMARK   24  A    between atoms: _65  and  _68
REMARK   25  A    between atoms: _68  and  _69
REMARK   26  A    between atoms: _75  and  _77
REMARK   27  A    between atoms: _77  and  _78
REMARK   28  A    between atoms: _77  and  _80
REMARK   29  A    between atoms: _80  and  _81
REMARK   30  A    between atoms: _86  and  _88
REMARK   31  A    between atoms: _88  and  _89
REMARK   32  A    between atoms: _88  and  _91
REMARK   33  A    between atoms: _91  and  _92
REMARK   34  A    between atoms: _97  and  _98
REMARK   35  A    between atoms: _100  and  _102
REMARK   36  A    between atoms: _102  and  _103
REMARK   37  A    between atoms: _106  and  _108
REMARK   38  A    between atoms: _108  and  _109
REMARK   39  A    between atoms: _108  and  _111
REMARK   40  A    between atoms: _111  and  _112
REMARK   41  A    between atoms: _112  and  _113
REMARK   42  A    between atoms: _116  and  _118
REMARK   43  A    between atoms: _118  and  _119
REMARK   44  A    between atoms: _118  and  _121
REMARK   45  A    between atoms: _121  and  _122
REMARK   46  A    between atoms: _132  and  _134
REMARK   47  A    between atoms: _134  and  _135
REMARK   48  A    between atoms: _134  and  _137
REMARK   49  A    between atoms: _137  and  _138
REMARK   50  A    between atoms: _143  and  _144
REMARK   51  A    between atoms: _146  and  _148
REMARK   52  A    between atoms: _148  and  _149
REMARK   53  A    between atoms: _148  and  _151
REMARK   54  A    between atoms: _151  and  _152
REMARK   55  A    between atoms: _155  and  _157
REMARK   56  A    between atoms: _157  and  _158
REMARK   57  A    between atoms: _157  and  _160
REMARK   58  A    between atoms: _160  and  _161
REMARK   59  A    between atoms: _166  and  _168
REMARK   60  A    between atoms: _168  and  _169
REMARK   61  A    between atoms: _168  and  _171
REMARK   62  A    between atoms: _171  and  _172
REMARK   63  A    between atoms: _177  and  _179
REMARK   64  A    between atoms: _179  and  _180
REMARK   65  A    between atoms: _179  and  _182
REMARK   66  A    between atoms: _182  and  _183
REMARK   67  A    between atoms: _186  and  _188
REMARK   68  A    between atoms: _188  and  _189
REMARK   69  A    between atoms: _188  and  _191
REMARK   70  A    between atoms: _191  and  _192
REMARK   71  A    between atoms: _197  and  _198
REMARK   72  A    between atoms: _200  and  _202
REMARK   73  A    between atoms: _202  and  _203
REMARK   74  A    between atoms: _202  and  _205
REMARK   75  A    between atoms: _205  and  _206
REMARK   76  A    between atoms: _208  and  _210
REMARK   77  A    between atoms: _210  and  _211
REMARK   78  A    between atoms: _210  and  _213
REMARK   79  A    between atoms: _213  and  _214
REMARK   80  A    between atoms: _217  and  _219
REMARK   81  A    between atoms: _219  and  _220
REMARK   82  A    between atoms: _219  and  _222
REMARK   83  A    between atoms: _222  and  _223
REMARK   84  A    between atoms: _233  and  _235
REMARK   85  A    between atoms: _235  and  _236
REMARK   86  A    between atoms: _235  and  _238
REMARK   87  A    between atoms: _238  and  _239
REMARK   88  A    between atoms: _242  and  _244
REMARK   89  A    between atoms: _244  and  _245
REMARK   90  A    between atoms: _244  and  _247
REMARK   91  A    between atoms: _247  and  _248
REMARK   92  A    between atoms: _258  and  _260
REMARK   93  A    between atoms: _260  and  _261
REMARK   94  A    between atoms: _260  and  _263
REMARK   95  A    between atoms: _263  and  _264
REMARK   96  A    between atoms: _269  and  _271
REMARK   97  A    between atoms: _271  and  _272
REMARK   98  A    between atoms: _271  and  _274
REMARK   99  A    between atoms: _274  and  _275
REMARK  100  A    between atoms: _278  and  _280
REMARK  101  A    between atoms: _280  and  _281
REMARK  102  A    between atoms: _280  and  _283
REMARK  103  A    between atoms: _283  and  _284
REMARK  104  A    between atoms: _284  and  _285
REMARK  105  A    between atoms: _287  and  _289
REMARK  106  A    between atoms: _289  and  _290
REMARK  107  A    between atoms: _289  and  _292
REMARK  108  A    between atoms: _292  and  _293
REMARK  109  A    between atoms: _298  and  _300
REMARK  110  A    between atoms: _300  and  _301
REMARK  111  A    between atoms: _300  and  _303
REMARK  112  A    between atoms: _303  and  _304
REMARK  113  A    between atoms: _304  and  _305
REMARK  114  A    between atoms: _305  and  _306
REMARK  115  A    between atoms: _315  and  _317
REMARK  116  A    between atoms: _317  and  _318
REMARK  117  A    between atoms: _317  and  _320
REMARK  118  A    between atoms: _320  and  _321
REMARK  119  A    between atoms: _324  and  _326
REMARK  120  A    between atoms: _326  and  _327
REMARK  121  A    between atoms: _330  and  _332
REMARK  122  A    between atoms: _332  and  _333
REMARK  123  A    between atoms: _332  and  _335
REMARK  124  A    between atoms: _335  and  _336
REMARK  125  A    between atoms: _336  and  _337
REMARK  126  A    between atoms: _340  and  _342
REMARK  127  A    between atoms: _342  and  _343
REMARK  128  A    between atoms: _342  and  _345
REMARK  129  A    between atoms: _345  and  _346
REMARK  130  A    between atoms: _351  and  _353
REMARK  131  A    between atoms: _353  and  _354
REMARK  132  A    between atoms: _353  and  _356
REMARK  133  A    between atoms: _356  and  _357
REMARK  134  A    between atoms: _360  and  _362
REMARK  135  A    between atoms: _362  and  _363
REMARK  136  A    between atoms: _362  and  _365
REMARK  137  A    between atoms: _365  and  _366
REMARK  138  A    between atoms: _366  and  _367
REMARK  139  A    between atoms: _367  and  _368
REMARK  140  A    between atoms: _377  and  _379
REMARK  141  A    between atoms: _379  and  _380
REMARK  142  A    between atoms: _382  and  _384
REMARK  143  A    between atoms: _384  and  _385
REMARK  144  A    between atoms: _384  and  _387
REMARK  145  A    between atoms: _387  and  _388
REMARK  146  A    between atoms: _390  and  _392
REMARK  147  A    between atoms: _392  and  _393
REMARK  148  A    between atoms: _392  and  _395
REMARK  149  A    between atoms: _395  and  _396
REMARK  150  A    between atoms: _402  and  _404
REMARK  151  A    between atoms: _404  and  _405
REMARK  152  A    between atoms: _407  and  _409
REMARK  153  A    between atoms: _409  and  _410
REMARK  154  A    between atoms: _409  and  _412
REMARK  155  A    between atoms: _412  and  _413
REMARK  156  A    between atoms: _416  and  _418
REMARK  157  A    between atoms: _418  and  _419
REMARK  158  A    between atoms: _418  and  _421
REMARK  159  A    between atoms: _421  and  _422
REMARK                            x       y       z     vdW  Elec       q    Type
REMARK                         _______ _______ _______ _____ _____    ______ ____
ROOT
ATOM      1  CA  TRP A   1     -13.664  31.281  26.659  0.00  0.00    +0.149 C 
ENDROOT
BRANCH   1   2
ATOM      2  C   TRP A   1     -13.548  30.401  25.415  0.00  0.00    +0.239 C 
ATOM      3  N   PHE A   2     -13.966  29.153  25.501  0.00  0.00    -0.298 N 
ATOM      4  H   PHE A   2     -14.418  28.797  26.367  0.00  0.00    +0.150 HD
ATOM      5  O   TRP A   1     -13.105  30.865  24.368  0.00  0.00    -0.274 OA
BRANCH   3   6
ATOM      6  CA  PHE A   2     -13.773  28.285  24.339  0.00  0.00    +0.141 C 
BRANCH   6   7
ATOM      7  C   PHE A   2     -14.672  28.567  23.166  0.00  0.00    +0.227 C 
ATOM      8  O   PHE A   2     -14.356  28.195  22.036  0.00  0.00    -0.286 OA
ENDBRANCH   6   7
BRANCH   6   9
ATOM      9  CB  PHE A   2     -13.821  26.804  24.743  0.00  0.00    +0.054 C 
BRANCH   9  10
ATOM     10  CG  PHE A   2     -12.684  26.403  25.655  0.00  0.00    -0.020 A 
ATOM     11  CD2 PHE A   2     -12.862  26.382  27.043  0.00  0.00    -0.004 A 
ATOM     12  CE2 PHE A   2     -11.794  26.092  27.919  0.00  0.00    -0.000 A 
ATOM     13  CZ  PHE A   2     -10.513  25.812  27.399  0.00  0.00    -0.000 A 
ATOM     14  CE1 PHE A   2     -10.314  25.827  26.026  0.00  0.00    -0.000 A 
ATOM     15  CD1 PHE A   2     -11.410  26.124  25.139  0.00  0.00    -0.004 A 
ENDBRANCH   9  10
ENDBRANCH   6   9
ENDBRANCH   3   6
ENDBRANCH   1   2
BRANCH   1  16
ATOM     16  N   TRP A   1     -14.996  31.381  27.235  0.00  0.00    -0.238 NA
ATOM     17  H   TRP A   1     -15.090  31.416  28.270  0.00  0.00    +0.142 HD
ENDBRANCH   1  16
BRANCH   1  18
ATOM     18  CB  TRP A   1     -12.648  30.805  27.713  0.00  0.00    +0.054 C 
BRANCH  18  19
ATOM     19  CG  TRP A   1     -11.248  30.653  27.172  0.00  0.00    -0.002 A 
ATOM     20  CD2 TRP A   1     -10.238  31.680  27.102  0.00  0.00    +0.013 A 
ATOM     21  CE3 TRP A   1     -10.176  33.022  27.537  0.00  0.00    +0.001 A 
ATOM     22  CZ3 TRP A   1      -9.016  33.757  27.293  0.00  0.00    +0.000 A 
ATOM     23  CH2 TRP A   1      -7.919  33.168  26.621  0.00  0.00    +0.001 A 
ATOM     24  CZ2 TRP A   1      -7.957  31.852  26.186  0.00  0.00    +0.017 A 
ATOM     25  CE2 TRP A   1      -9.123  31.121  26.434  0.00  0.00    +0.056 A 
ATOM     26  NE1 TRP A   1      -9.433  29.815  26.119  0.00  0.00    -0.352 N 
ATOM     27  HE1 TRP A   1      -8.805  29.152  25.622  0.00  0.00    +0.166 HD
ATOM     28  CD1 TRP A   1     -10.697  29.527  26.562  0.00  0.00    +0.068 A 
ENDBRANCH  18  19
ENDBRANCH   1  18
TORSDOF 8
REMARK  Name = ../refined-set-2016/2zxd/2zxd_pocket.pdb
REMARK  159 active torsions:
REMARK  status: ('A' for Active; 'I' for Inactive)
REMARK    1  A    between atoms: _1  and  _3
REMARK    2  A    between atoms: _3  and  _4
REMARK    3  A    between atoms: _3  and  _6
REMARK    4  A    between atoms: _6  and  _7
REMARK    5  A    between atoms: _13  and  _15
REMARK    6  A    between atoms: _15  and  _16
REMARK    7  A    between atoms: _15  and  _18
REMARK    8  A    between atoms: _18  and  _19
REMARK    9  A    between atoms: _24  and  _26
REMARK   10  A    between atoms: _26  and  _27
REMARK   11  A    between atoms: _26  and  _29
REMARK   12  A    between atoms: _29  and  _30
REMARK   13  A    between atoms: _35  and  _36
REMARK   14  A    between atoms: _38  and  _40
REMARK   15  A    between atoms: _40  and  _41
REMARK   16  A    between atoms: _40  and  _43
REMARK   17  A    between atoms: _43  and  _44
REMARK   18  A    between atoms: _47  and  _49
REMARK   19  A    between atoms: _49  and  _50
REMARK   20  A    between atoms: _49  and  _52
REMARK   21  A    between atoms: _52  and  _53
REMARK   22  A    between atoms: _63  and  _65
REMARK   23  A    between atoms: _65  and  _66
REMARK   24  A    between atoms: _65  and  _68
REMARK   25  A    between atoms: _68  and  _69
REMARK   26  A    between atoms: _75  and  _77
REMARK   27  A    between atoms: _77  and  _78
REMARK   28  A    between atoms: _77  and  _80
REMARK   29  A    between atoms: _80  and  _81
REMARK   30  A    between atoms: _86  and  _88
REMARK   31  A    between atoms: _88  and  _89
REMARK   32  A    between atoms: _88  and  _91
REMARK   33  A    between atoms: _91  and  _92
REMARK   34  A    between atoms: _97  and  _98
REMARK   35  A    between atoms: _100  and  _102
REMARK   36  A    between atoms: _102  and  _103
REMARK   37  A    between atoms: _106  and  _108
REMARK   38  A    between atoms: _108  and  _109
REMARK   39  A    between atoms: _108  and  _111
REMARK   40  A    between atoms: _111  and  _112
REMARK   41  A    between atoms: _112  and  _113
REMARK   42  A    between atoms: _116  and  _118
REMARK   43  A    between atoms: _118  and  _119
REMARK   44  A    between atoms: _118  and  _121
REMARK   45  A    between atoms: _121  and  _122
REMARK   46  A    between atoms: _132  and  _134
REMARK   47  A    between atoms: _134  and  _135
REMARK   48  A    between atoms: _134  and  _137
REMARK   49  A    between atoms: _137  and  _138
REMARK   50  A    between atoms: _143  and  _144
REMARK   51  A    between atoms: _146  and  _148
REMARK   52  A    between atoms: _148  and  _149
REMARK   53  A    between atoms: _148  and  _151
REMARK   54  A    between atoms: _151  and  _152
REMARK   55  A    between atoms: _155  and  _157
REMARK   56  A    between atoms: _157  and  _158
REMARK   57  A    between atoms: _157  and  _160
REMARK   58  A    between atoms: _160  and  _161
REMARK   59  A    between atoms: _166  and  _168
REMARK   60  A    between atoms: _168  and  _169
REMARK   61  A    between atoms: _168  and  _171
REMARK   62  A    between atoms: _171  and  _172
REMARK   63  A    between atoms: _177  and  _179
REMARK   64  A    between atoms: _179  and  _180
REMARK   65  A    between atoms: _179  and  _182
REMARK   66  A    between atoms: _182  and  _183
REMARK   67  A    between atoms: _186  and  _188
REMARK   68  A    between atoms: _188  and  _189
REMARK   69  A    between atoms: _188  and  _191
REMARK   70  A    between atoms: _191  and  _192
REMARK   71  A    between atoms: _197  and  _198
REMARK   72  A    between atoms: _200  and  _202
REMARK   73  A    between atoms: _202  and  _203
REMARK   74  A    between atoms: _202  and  _205
REMARK   75  A    between atoms: _205  and  _206
REMARK   76  A    between atoms: _208  and  _210
REMARK   77  A    between atoms: _210  and  _211
REMARK   78  A    between atoms: _210  and  _213
REMARK   79  A    between atoms: _213  and  _214
REMARK   80  A    between atoms: _217  and  _219
REMARK   81  A    between atoms: _219  and  _220
REMARK   82  A    between atoms: _219  and  _222
REMARK   83  A    between atoms: _222  and  _223
REMARK   84  A    between atoms: _233  and  _235
REMARK   85  A    between atoms: _235  and  _236
REMARK   86  A    between atoms: _235  and  _238
REMARK   87  A    between atoms: _238  and  _239
REMARK   88  A    between atoms: _242  and  _244
REMARK   89  A    between atoms: _244  and  _245
REMARK   90  A    between atoms: _244  and  _247
REMARK   91  A    between atoms: _247  and  _248
REMARK   92  A    between atoms: _258  and  _260
REMARK   93  A    between atoms: _260  and  _261
REMARK   94  A    between atoms: _260  and  _263
REMARK   95  A    between atoms: _263  and  _264
REMARK   96  A    between atoms: _269  and  _271
REMARK   97  A    between atoms: _271  and  _272
REMARK   98  A    between atoms: _271  and  _274
REMARK   99  A    between atoms: _274  and  _275
REMARK  100  A    between atoms: _278  and  _280
REMARK  101  A    between atoms: _280  and  _281
REMARK  102  A    between atoms: _280  and  _283
REMARK  103  A    between atoms: _283  and  _284
REMARK  104  A    between atoms: _284  and  _285
REMARK  105  A    between atoms: _287  and  _289
REMARK  106  A    between atoms: _289  and  _290
REMARK  107  A    between atoms: _289  and  _292
REMARK  108  A    between atoms: _292  and  _293
REMARK  109  A    between atoms: _298  and  _300
REMARK  110  A    between atoms: _300  and  _301
REMARK  111  A    between atoms: _300  and  _303
REMARK  112  A    between atoms: _303  and  _304
REMARK  113  A    between atoms: _304  and  _305
REMARK  114  A    between atoms: _305  and  _306
REMARK  115  A    between atoms: _315  and  _317
REMARK  116  A    between atoms: _317  and  _318
REMARK  117  A    between atoms: _317  and  _320
REMARK  118  A    between atoms: _320  and  _321
REMARK  119  A    between atoms: _324  and  _326
REMARK  120  A    between atoms: _326  and  _327
REMARK  121  A    between atoms: _330  and  _332
REMARK  122  A    between atoms: _332  and  _333
REMARK  123  A    between atoms: _332  and  _335
REMARK  124  A    between atoms: _335  and  _336
REMARK  125  A    between atoms: _336  and  _337
REMARK  126  A    between atoms: _340  and  _342
REMARK  127  A    between atoms: _342  and  _343
REMARK  128  A    between atoms: _342  and  _345
REMARK  129  A    between atoms: _345  and  _346
REMARK  130  A    between atoms: _351  and  _353
REMARK  131  A    between atoms: _353  and  _354
REMARK  132  A    between atoms: _353  and  _356
REMARK  133  A    between atoms: _356  and  _357
REMARK  134  A    between atoms: _360  and  _362
REMARK  135  A    between atoms: _362  and  _363
REMARK  136  A    between atoms: _362  and  _365
REMARK  137  A    between atoms: _365  and  _366
REMARK  138  A    between atoms: _366  and  _367
REMARK  139  A    between atoms: _367  and  _368
REMARK  140  A    between atoms: _377  and  _379
REMARK  141  A    between atoms: _379  and  _380
REMARK  142  A    between atoms: _382  and  _384
REMARK  143  A    between atoms: _384  and  _385
REMARK  144  A    between atoms: _384  and  _387
REMARK  145  A    between atoms: _387  and  _388
REMARK  146  A    between atoms: _390  and  _392
REMARK  147  A    between atoms: _392  and  _393
REMARK  148  A    between atoms: _392  and  _395
REMARK  149  A    between atoms: _395  and  _396
REMARK  150  A    between atoms: _402  and  _404
REMARK  151  A    between atoms: _404  and  _405
REMARK  152  A    between atoms: _407  and  _409
REMARK  153  A    between atoms: _409  and  _410
REMARK  154  A    between atoms: _409  and  _412
REMARK  155  A    between atoms: _412  and  _413
REMARK  156  A    between atoms: _416  and  _418
REMARK  157  A    between atoms: _418  and  _419
REMARK  158  A    between atoms: _418  and  _421
REMARK  159  A    between atoms: _421  and  _422
REMARK                            x       y       z     vdW  Elec       q    Type
REMARK                         _______ _______ _______ _____ _____    ______ ____
ROOT
ATOM      1  CB  ASN A   1     -11.015  30.416  21.469  0.00  0.00    +0.110 C 
ENDROOT
BRANCH   1   2
ATOM      2  CG  ASN A   1      -9.797  29.898  22.199  0.00  0.00    +0.221 C 
ATOM      3  ND2 ASN A   1      -9.787  28.580  22.500  0.00  0.00    -0.329 N 
ATOM      4 HD21 ASN A   1      -8.972  28.166  22.996  0.00  0.00    +0.145 HD
ATOM      5 HD22 ASN A   1     -10.594  27.980  22.235  0.00  0.00    +0.145 HD
ATOM      6  OD1 ASN A   1      -8.860  30.675  22.488  0.00  0.00    -0.275 OA
ENDBRANCH   1   2
BRANCH   1   7
ATOM      7  CA  ASN A   1     -11.427  31.822  21.934  0.00  0.00    +0.142 C 
BRANCH   7   8
ATOM      8  N   ASN A   1     -12.837  31.994  21.640  0.00  0.00    -0.239 NA
ATOM      9  H   ASN A   1     -13.330  31.257  21.097  0.00  0.00    +0.142 HD
ENDBRANCH   7   8
BRANCH   7  10
ATOM     10  C   ASN A   1     -10.505  32.866  21.321  0.00  0.00    +0.225 C 
ATOM     11  O   ASN A   1     -10.411  32.978  20.119  0.00  0.00    -0.287 OA
ENDBRANCH   7  10
ENDBRANCH   1   7
TORSDOF 4
REMARK  Name = ../refined-set-2016/2zxd/2zxd_pocket.pdb
REMARK  159 active torsions:
REMARK  status: ('A' for Active; 'I' for Inactive)
REMARK    1  A    between atoms: _1  and  _3
REMARK    2  A    between atoms: _3  and  _4
REMARK    3  A    between atoms: _3  and  _6
REMARK    4  A    between atoms: _6  and  _7
REMARK    5  A    between atoms: _13  and  _15
REMARK    6  A    between atoms: _15  and  _16
REMARK    7  A    between atoms: _15  and  _18
REMARK    8  A    between atoms: _18  and  _19
REMARK    9  A    between atoms: _24  and  _26
REMARK   10  A    between atoms: _26  and  _27
REMARK   11  A    between atoms: _26  and  _29
REMARK   12  A    between atoms: _29  and  _30
REMARK   13  A    between atoms: _35  and  _36
REMARK   14  A    between atoms: _38  and  _40
REMARK   15  A    between atoms: _40  and  _41
REMARK   16  A    between atoms: _40  and  _43
REMARK   17  A    between atoms: _43  and  _44
REMARK   18  A    between atoms: _47  and  _49
REMARK   19  A    between atoms: _49  and  _50
REMARK   20  A    between atoms: _49  and  _52
REMARK   21  A    between atoms: _52  and  _53
REMARK   22  A    between atoms: _63  and  _65
REMARK   23  A    between atoms: _65  and  _66
REMARK   24  A    between atoms: _65  and  _68
REMARK   25  A    between atoms: _68  and  _69
REMARK   26  A    between atoms: _75  and  _77
REMARK   27  A    between atoms: _77  and  _78
REMARK   28  A    between atoms: _77  and  _80
REMARK   29  A    between atoms: _80  and  _81
REMARK   30  A    between atoms: _86  and  _88
REMARK   31  A    between atoms: _88  and  _89
REMARK   32  A    between atoms: _88  and  _91
REMARK   33  A    between atoms: _91  and  _92
REMARK   34  A    between atoms: _97  and  _98
REMARK   35  A    between atoms: _100  and  _102
REMARK   36  A    between atoms: _102  and  _103
REMARK   37  A    between atoms: _106  and  _108
REMARK   38  A    between atoms: _108  and  _109
REMARK   39  A    between atoms: _108  and  _111
REMARK   40  A    between atoms: _111  and  _112
REMARK   41  A    between atoms: _112  and  _113
REMARK   42  A    between atoms: _116  and  _118
REMARK   43  A    between atoms: _118  and  _119
REMARK   44  A    between atoms: _118  and  _121
REMARK   45  A    between atoms: _121  and  _122
REMARK   46  A    between atoms: _132  and  _134
REMARK   47  A    between atoms: _134  and  _135
REMARK   48  A    between atoms: _134  and  _137
REMARK   49  A    between atoms: _137  and  _138
REMARK   50  A    between atoms: _143  and  _144
REMARK   51  A    between atoms: _146  and  _148
REMARK   52  A    between atoms: _148  and  _149
REMARK   53  A    between atoms: _148  and  _151
REMARK   54  A    between atoms: _151  and  _152
REMARK   55  A    between atoms: _155  and  _157
REMARK   56  A    between atoms: _157  and  _158
REMARK   57  A    between atoms: _157  and  _160
REMARK   58  A    between atoms: _160  and  _161
REMARK   59  A    between atoms: _166  and  _168
REMARK   60  A    between atoms: _168  and  _169
REMARK   61  A    between atoms: _168  and  _171
REMARK   62  A    between atoms: _171  and  _172
REMARK   63  A    between atoms: _177  and  _179
REMARK   64  A    between atoms: _179  and  _180
REMARK   65  A    between atoms: _179  and  _182
REMARK   66  A    between atoms: _182  and  _183
REMARK   67  A    between atoms: _186  and  _188
REMARK   68  A    between atoms: _188  and  _189
REMARK   69  A    between atoms: _188  and  _191
REMARK   70  A    between atoms: _191  and  _192
REMARK   71  A    between atoms: _197  and  _198
REMARK   72  A    between atoms: _200  and  _202
REMARK   73  A    between atoms: _202  and  _203
REMARK   74  A    between atoms: _202  and  _205
REMARK   75  A    between atoms: _205  and  _206
REMARK   76  A    between atoms: _208  and  _210
REMARK   77  A    between atoms: _210  and  _211
REMARK   78  A    between atoms: _210  and  _213
REMARK   79  A    between atoms: _213  and  _214
REMARK   80  A    between atoms: _217  and  _219
REMARK   81  A    between atoms: _219  and  _220
REMARK   82  A    between atoms: _219  and  _222
REMARK   83  A    between atoms: _222  and  _223
REMARK   84  A    between atoms: _233  and  _235
REMARK   85  A    between atoms: _235  and  _236
REMARK   86  A    between atoms: _235  and  _238
REMARK   87  A    between atoms: _238  and  _239
REMARK   88  A    between atoms: _242  and  _244
REMARK   89  A    between atoms: _244  and  _245
REMARK   90  A    between atoms: _244  and  _247
REMARK   91  A    between atoms: _247  and  _248
REMARK   92  A    between atoms: _258  and  _260
REMARK   93  A    between atoms: _260  and  _261
REMARK   94  A    between atoms: _260  and  _263
REMARK   95  A    between atoms: _263  and  _264
REMARK   96  A    between atoms: _269  and  _271
REMARK   97  A    between atoms: _271  and  _272
REMARK   98  A    between atoms: _271  and  _274
REMARK   99  A    between atoms: _274  and  _275
REMARK  100  A    between atoms: _278  and  _280
REMARK  101  A    between atoms: _280  and  _281
REMARK  102  A    between atoms: _280  and  _283
REMARK  103  A    between atoms: _283  and  _284
REMARK  104  A    between atoms: _284  and  _285
REMARK  105  A    between atoms: _287  and  _289
REMARK  106  A    between atoms: _289  and  _290
REMARK  107  A    between atoms: _289  and  _292
REMARK  108  A    between atoms: _292  and  _293
REMARK  109  A    between atoms: _298  and  _300
REMARK  110  A    between atoms: _300  and  _301
REMARK  111  A    between atoms: _300  and  _303
REMARK  112  A    between atoms: _303  and  _304
REMARK  113  A    between atoms: _304  and  _305
REMARK  114  A    between atoms: _305  and  _306
REMARK  115  A    between atoms: _315  and  _317
REMARK  116  A    between atoms: _317  and  _318
REMARK  117  A    between atoms: _317  and  _320
REMARK  118  A    between atoms: _320  and  _321
REMARK  119  A    between atoms: _324  and  _326
REMARK  120  A    between atoms: _326  and  _327
REMARK  121  A    between atoms: _330  and  _332
REMARK  122  A    between atoms: _332  and  _333
REMARK  123  A    between atoms: _332  and  _335
REMARK  124  A    between atoms: _335  and  _336
REMARK  125  A    between atoms: _336  and  _337
REMARK  126  A    between atoms: _340  and  _342
REMARK  127  A    between atoms: _342  and  _343
REMARK  128  A    between atoms: _342  and  _345
REMARK  129  A    between atoms: _345  and  _346
REMARK  130  A    between atoms: _351  and  _353
REMARK  131  A    between atoms: _353  and  _354
REMARK  132  A    between atoms: _353  and  _356
REMARK  133  A    between atoms: _356  and  _357
REMARK  134  A    between atoms: _360  and  _362
REMARK  135  A    between atoms: _362  and  _363
REMARK  136  A    between atoms: _362  and  _365
REMARK  137  A    between atoms: _365  and  _366
REMARK  138  A    between atoms: _366  and  _367
REMARK  139  A    between atoms: _367  and  _368
REMARK  140  A    between atoms: _377  and  _379
REMARK  141  A    between atoms: _379  and  _380
REMARK  142  A    between atoms: _382  and  _384
REMARK  143  A    between atoms: _384  and  _385
REMARK  144  A    between atoms: _384  and  _387
REMARK  145  A    between atoms: _387  and  _388
REMARK  146  A    between atoms: _390  and  _392
REMARK  147  A    between atoms: _392  and  _393
REMARK  148  A    between atoms: _392  and  _395
REMARK  149  A    between atoms: _395  and  _396
REMARK  150  A    between atoms: _402  and  _404
REMARK  151  A    between atoms: _404  and  _405
REMARK  152  A    between atoms: _407  and  _409
REMARK  153  A    between atoms: _409  and  _410
REMARK  154  A    between atoms: _409  and  _412
REMARK  155  A    between atoms: _412  and  _413
REMARK  156  A    between atoms: _416  and  _418
REMARK  157  A    between atoms: _418  and  _419
REMARK  158  A    between atoms: _418  and  _421
REMARK  159  A    between atoms: _421  and  _422
REMARK                            x       y       z     vdW  Elec       q    Type
REMARK                         _______ _______ _______ _____ _____    ______ ____
ROOT
ATOM      1  C   GLU A   3      -5.020  27.421  17.613  0.00  0.00    +0.241 C 
ATOM      2  N   TRP A   4      -6.098  27.827  18.273  0.00  0.00    -0.297 N 
ATOM      3  H   TRP A   4      -6.197  28.835  18.510  0.00  0.00    +0.150 HD
ATOM      4  O   GLU A   3      -4.844  26.248  17.317  0.00  0.00    -0.273 OA
ENDROOT
BRANCH   2   5
ATOM      5  CA  TRP A   4      -7.147  26.897  18.674  0.00  0.00    +0.153 C 
BRANCH   5   6
ATOM      6  C   TRP A   4      -8.252  26.867  17.576  0.00  0.00    +0.241 C 
ATOM      7  O   TRP A   4      -9.351  26.372  17.790  0.00  0.00    -0.273 OA
ATOM      8  N   TYR A   5      -7.952  27.401  16.405  0.00  0.00    -0.298 N 
ATOM      9  H   TYR A   5      -7.009  27.816  16.260  0.00  0.00    +0.150 HD
BRANCH   8  10
ATOM     10  CA  TYR A   5      -8.925  27.420  15.303  0.00  0.00    +0.141 C 
BRANCH  10  11
ATOM     11  C   TYR A   5      -9.698  26.133  15.123  0.00  0.00    +0.227 C 
ATOM     12  O   TYR A   5     -10.948  26.149  15.033  0.00  0.00    -0.286 OA
ENDBRANCH  10  11
BRANCH  10  13
ATOM     13  CB  TYR A   5      -8.229  27.756  13.977  0.00  0.00    +0.054 C 
BRANCH  13  14
ATOM     14  CG  TYR A   5      -9.182  28.133  12.840  0.00  0.00    -0.020 A 
ATOM     15  CD2 TYR A   5      -9.470  29.485  12.557  0.00  0.00    -0.001 A 
ATOM     16  CE2 TYR A   5     -10.282  29.853  11.477  0.00  0.00    +0.036 A 
ATOM     17  CZ  TYR A   5     -10.815  28.863  10.670  0.00  0.00    +0.134 A 
ATOM     18  CE1 TYR A   5     -10.569  27.492  10.939  0.00  0.00    +0.036 A 
ATOM     19  CD1 TYR A   5      -9.755  27.141  12.026  0.00  0.00    -0.001 A 
BRANCH  17  20
ATOM     20  OH  TYR A   5     -11.536  29.214   9.553  0.00  0.00    -0.506 OA
ATOM     21  HH  TYR A   5     -12.438  28.809   9.603  0.00  0.00    +0.292 HD
ENDBRANCH  17  20
ENDBRANCH  13  14
ENDBRANCH  10  13
ENDBRANCH   8  10
ENDBRANCH   5   6
BRANCH   5  22
ATOM     22  CB  TRP A   4      -7.744  27.335  20.014  0.00  0.00    +0.057 C 
BRANCH  22  23
ATOM     23  CG  TRP A   4      -7.025  26.804  21.247  0.00  0.00    -0.002 A 
ATOM     24  CD2 TRP A   4      -7.517  25.797  22.157  0.00  0.00    +0.013 A 
ATOM     25  CE2 TRP A   4      -6.487  25.535  23.082  0.00  0.00    +0.056 A 
ATOM     26  CZ2 TRP A   4      -6.621  24.587  24.116  0.00  0.00    +0.017 A 
ATOM     27  CH2 TRP A   4      -7.828  23.915  24.202  0.00  0.00    +0.001 A 
ATOM     28  CZ3 TRP A   4      -8.889  24.175  23.281  0.00  0.00    +0.000 A 
ATOM     29  NE1 TRP A   4      -5.430  26.348  22.756  0.00  0.00    -0.352 N 
ATOM     30  HE1 TRP A   4      -4.521  26.384  23.261  0.00  0.00    +0.166 HD
ATOM     31  CE3 TRP A   4      -8.741  25.095  22.272  0.00  0.00    +0.001 A 
ATOM     32  CD1 TRP A   4      -5.760  27.109  21.657  0.00  0.00    +0.068 A 
ENDBRANCH  22  23
ENDBRANCH   5  22
ENDBRANCH   2   5
BRANCH   1  33
ATOM     33  CA  GLU A   3      -4.005  28.482  17.189  0.00  0.00    +0.149 C 
BRANCH  33  35
ATOM     34  C   ALA A   2      -5.475  30.281  16.557  0.00  0.00    +0.241 C 
ATOM     35  N   GLU A   3      -4.517  29.822  17.373  0.00  0.00    -0.297 N 
ATOM     36  H   GLU A   3      -4.144  30.425  18.134  0.00  0.00    +0.150 HD
ATOM     37  O   ALA A   2      -5.943  29.607  15.634  0.00  0.00    -0.273 OA
BRANCH  34  38
ATOM     38  CA  ALA A   2      -5.975  31.703  16.780  0.00  0.00    +0.149 C 
ATOM     39  CB  ALA A   2      -5.242  32.648  15.835  0.00  0.00    +0.031 C 
BRANCH  38  42
ATOM     40  C   TYR A   1      -6.402  31.504  19.163  0.00  0.00    +0.239 C 
ATOM     41  O   TYR A   1      -7.097  30.511  18.999  0.00  0.00    -0.274 OA
ATOM     42  N   ALA A   2      -5.818  32.151  18.165  0.00  0.00    -0.297 N 
ATOM     43  H   ALA A   2      -5.239  32.990  18.369  0.00  0.00    +0.150 HD
BRANCH  40  44
ATOM     44  CA  TYR A   1      -6.180  32.068  20.557  0.00  0.00    +0.149 C 
BRANCH  44  45
ATOM     45  N   TYR A   1      -7.380  32.731  21.065  0.00  0.00    -0.238 NA
ATOM     46  H   TYR A   1      -8.088  32.165  21.574  0.00  0.00    +0.142 HD
ENDBRANCH  44  45
BRANCH  44  47
ATOM     47  CB  TYR A   1      -5.765  30.925  21.490  0.00  0.00    +0.053 C 
BRANCH  47  48
ATOM     48  CG  TYR A   1      -5.243  31.322  22.868  0.00  0.00    -0.020 A 
ATOM     49  CD2 TYR A   1      -4.876  30.322  23.804  0.00  0.00    -0.001 A 
ATOM     50  CE2 TYR A   1      -4.360  30.661  25.059  0.00  0.00    +0.036 A 
ATOM     51  CZ  TYR A   1      -4.202  32.020  25.391  0.00  0.00    +0.134 A 
ATOM     52  CE1 TYR A   1      -4.556  33.024  24.489  0.00  0.00    +0.036 A 
ATOM     53  CD1 TYR A   1      -5.073  32.663  23.231  0.00  0.00    -0.001 A 
BRANCH  51  54
ATOM     54  OH  TYR A   1      -3.687  32.337  26.618  0.00  0.00    -0.506 OA
ATOM     55  HH  TYR A   1      -2.781  31.948  26.705  0.00  0.00    +0.292 HD
ENDBRANCH  51  54
ENDBRANCH  47  48
ENDBRANCH  44  47
ENDBRANCH  40  44
ENDBRANCH  38  42
ENDBRANCH  34  38
ENDBRANCH  33  35
BRANCH  33  56
ATOM     56  CB  GLU A   3      -2.651  28.274  17.911  0.00  0.00    +0.041 C 
BRANCH  56  57
ATOM     57  CG  GLU A   3      -2.675  28.200  19.428  0.00  0.00    +0.116 C 
BRANCH  57  58
ATOM     58  CD  GLU A   3      -2.802  29.563  20.130  0.00  0.00    +0.365 C 
ATOM     59  OE2 GLU A   3      -2.738  29.568  21.395  0.00  0.00    -0.246 OA
ATOM     60  OE1 GLU A   3      -2.974  30.605  19.435  0.00  0.00    -0.246 OA
ENDBRANCH  57  58
ENDBRANCH  56  57
ENDBRANCH  33  56
ENDBRANCH   1  33
TORSDOF 21
REMARK  Name = ../refined-set-2016/2zxd/2zxd_pocket.pdb
REMARK  159 active torsions:
REMARK  status: ('A' for Active; 'I' for Inactive)
REMARK    1  A    between atoms: _1  and  _3
REMARK    2  A    between atoms: _3  and  _4
REMARK    3  A    between atoms: _3  and  _6
REMARK    4  A    between atoms: _6  and  _7
REMARK    5  A    between atoms: _13  and  _15
REMARK    6  A    between atoms: _15  and  _16
REMARK    7  A    between atoms: _15  and  _18
REMARK    8  A    between atoms: _18  and  _19
REMARK    9  A    between atoms: _24  and  _26
REMARK   10  A    between atoms: _26  and  _27
REMARK   11  A    between atoms: _26  and  _29
REMARK   12  A    between atoms: _29  and  _30
REMARK   13  A    between atoms: _35  and  _36
REMARK   14  A    between atoms: _38  and  _40
REMARK   15  A    between atoms: _40  and  _41
REMARK   16  A    between atoms: _40  and  _43
REMARK   17  A    between atoms: _43  and  _44
REMARK   18  A    between atoms: _47  and  _49
REMARK   19  A    between atoms: _49  and  _50
REMARK   20  A    between atoms: _49  and  _52
REMARK   21  A    between atoms: _52  and  _53
REMARK   22  A    between atoms: _63  and  _65
REMARK   23  A    between atoms: _65  and  _66
REMARK   24  A    between atoms: _65  and  _68
REMARK   25  A    between atoms: _68  and  _69
REMARK   26  A    between atoms: _75  and  _77
REMARK   27  A    between atoms: _77  and  _78
REMARK   28  A    between atoms: _77  and  _80
REMARK   29  A    between atoms: _80  and  _81
REMARK   30  A    between atoms: _86  and  _88
REMARK   31  A    between atoms: _88  and  _89
REMARK   32  A    between atoms: _88  and  _91
REMARK   33  A    between atoms: _91  and  _92
REMARK   34  A    between atoms: _97  and  _98
REMARK   35  A    between atoms: _100  and  _102
REMARK   36  A    between atoms: _102  and  _103
REMARK   37  A    between atoms: _106  and  _108
REMARK   38  A    between atoms: _108  and  _109
REMARK   39  A    between atoms: _108  and  _111
REMARK   40  A    between atoms: _111  and  _112
REMARK   41  A    between atoms: _112  and  _113
REMARK   42  A    between atoms: _116  and  _118
REMARK   43  A    between atoms: _118  and  _119
REMARK   44  A    between atoms: _118  and  _121
REMARK   45  A    between atoms: _121  and  _122
REMARK   46  A    between atoms: _132  and  _134
REMARK   47  A    between atoms: _134  and  _135
REMARK   48  A    between atoms: _134  and  _137
REMARK   49  A    between atoms: _137  and  _138
REMARK   50  A    between atoms: _143  and  _144
REMARK   51  A    between atoms: _146  and  _148
REMARK   52  A    between atoms: _148  and  _149
REMARK   53  A    between atoms: _148  and  _151
REMARK   54  A    between atoms: _151  and  _152
REMARK   55  A    between atoms: _155  and  _157
REMARK   56  A    between atoms: _157  and  _158
REMARK   57  A    between atoms: _157  and  _160
REMARK   58  A    between atoms: _160  and  _161
REMARK   59  A    between atoms: _166  and  _168
REMARK   60  A    between atoms: _168  and  _169
REMARK   61  A    between atoms: _168  and  _171
REMARK   62  A    between atoms: _171  and  _172
REMARK   63  A    between atoms: _177  and  _179
REMARK   64  A    between atoms: _179  and  _180
REMARK   65  A    between atoms: _179  and  _182
REMARK   66  A    between atoms: _182  and  _183
REMARK   67  A    between atoms: _186  and  _188
REMARK   68  A    between atoms: _188  and  _189
REMARK   69  A    between atoms: _188  and  _191
REMARK   70  A    between atoms: _191  and  _192
REMARK   71  A    between atoms: _197  and  _198
REMARK   72  A    between atoms: _200  and  _202
REMARK   73  A    between atoms: _202  and  _203
REMARK   74  A    between atoms: _202  and  _205
REMARK   75  A    between atoms: _205  and  _206
REMARK   76  A    between atoms: _208  and  _210
REMARK   77  A    between atoms: _210  and  _211
REMARK   78  A    between atoms: _210  and  _213
REMARK   79  A    between atoms: _213  and  _214
REMARK   80  A    between atoms: _217  and  _219
REMARK   81  A    between atoms: _219  and  _220
REMARK   82  A    between atoms: _219  and  _222
REMARK   83  A    between atoms: _222  and  _223
REMARK   84  A    between atoms: _233  and  _235
REMARK   85  A    between atoms: _235  and  _236
REMARK   86  A    between atoms: _235  and  _238
REMARK   87  A    between atoms: _238  and  _239
REMARK   88  A    between atoms: _242  and  _244
REMARK   89  A    between atoms: _244  and  _245
REMARK   90  A    between atoms: _244  and  _247
REMARK   91  A    between atoms: _247  and  _248
REMARK   92  A    between atoms: _258  and  _260
REMARK   93  A    between atoms: _260  and  _261
REMARK   94  A    between atoms: _260  and  _263
REMARK   95  A    between atoms: _263  and  _264
REMARK   96  A    between atoms: _269  and  _271
REMARK   97  A    between atoms: _271  and  _272
REMARK   98  A    between atoms: _271  and  _274
REMARK   99  A    between atoms: _274  and  _275
REMARK  100  A    between atoms: _278  and  _280
REMARK  101  A    between atoms: _280  and  _281
REMARK  102  A    between atoms: _280  and  _283
REMARK  103  A    between atoms: _283  and  _284
REMARK  104  A    between atoms: _284  and  _285
REMARK  105  A    between atoms: _287  and  _289
REMARK  106  A    between atoms: _289  and  _290
REMARK  107  A    between atoms: _289  and  _292
REMARK  108  A    between atoms: _292  and  _293
REMARK  109  A    between atoms: _298  and  _300
REMARK  110  A    between atoms: _300  and  _301
REMARK  111  A    between atoms: _300  and  _303
REMARK  112  A    between atoms: _303  and  _304
REMARK  113  A    between atoms: _304  and  _305
REMARK  114  A    between atoms: _305  and  _306
REMARK  115  A    between atoms: _315  and  _317
REMARK  116  A    between atoms: _317  and  _318
REMARK  117  A    between atoms: _317  and  _320
REMARK  118  A    between atoms: _320  and  _321
REMARK  119  A    between atoms: _324  and  _326
REMARK  120  A    between atoms: _326  and  _327
REMARK  121  A    between atoms: _330  and  _332
REMARK  122  A    between atoms: _332  and  _333
REMARK  123  A    between atoms: _332  and  _335
REMARK  124  A    between atoms: _335  and  _336
REMARK  125  A    between atoms: _336  and  _337
REMARK  126  A    between atoms: _340  and  _342
REMARK  127  A    between atoms: _342  and  _343
REMARK  128  A    between atoms: _342  and  _345
REMARK  129  A    between atoms: _345  and  _346
REMARK  130  A    between atoms: _351  and  _353
REMARK  131  A    between atoms: _353  and  _354
REMARK  132  A    between atoms: _353  and  _356
REMARK  133  A    between atoms: _356  and  _357
REMARK  134  A    between atoms: _360  and  _362
REMARK  135  A    between atoms: _362  and  _363
REMARK  136  A    between atoms: _362  and  _365
REMARK  137  A    between atoms: _365  and  _366
REMARK  138  A    between atoms: _366  and  _367
REMARK  139  A    between atoms: _367  and  _368
REMARK  140  A    between atoms: _377  and  _379
REMARK  141  A    between atoms: _379  and  _380
REMARK  142  A    between atoms: _382  and  _384
REMARK  143  A    between atoms: _384  and  _385
REMARK  144  A    between atoms: _384  and  _387
REMARK  145  A    between atoms: _387  and  _388
REMARK  146  A    between atoms: _390  and  _392
REMARK  147  A    between atoms: _392  and  _393
REMARK  148  A    between atoms: _392  and  _395
REMARK  149  A    between atoms: _395  and  _396
REMARK  150  A    between atoms: _402  and  _404
REMARK  151  A    between atoms: _404  and  _405
REMARK  152  A    between atoms: _407  and  _409
REMARK  153  A    between atoms: _409  and  _410
REMARK  154  A    between atoms: _409  and  _412
REMARK  155  A    between atoms: _412  and  _413
REMARK  156  A    between atoms: _416  and  _418
REMARK  157  A    between atoms: _418  and  _419
REMARK  158  A    between atoms: _418  and  _421
REMARK  159  A    between atoms: _421  and  _422
REMARK                            x       y       z     vdW  Elec       q    Type
REMARK                         _______ _______ _______ _____ _____    ______ ____
ROOT
ATOM      1  CA  THR A   1       5.960  24.818  18.059  0.00  0.00    +0.160 C 
ENDROOT
BRANCH   1   2
ATOM      2  N   THR A   1       6.898  25.879  17.867  0.00  0.00    -0.237 NA
ATOM      3  H   THR A   1       6.560  26.778  17.468  0.00  0.00    +0.142 HD
ENDBRANCH   1   2
BRANCH   1   4
ATOM      4  CB  THR A   1       4.506  25.338  17.784  0.00  0.00    +0.134 C 
ATOM      5  CG2 THR A   1       4.015  26.246  18.929  0.00  0.00    +0.034 C 
BRANCH   4   6
ATOM      6  OG1 THR A   1       4.474  26.066  16.532  0.00  0.00    -0.383 OA
ATOM      7  HG1 THR A   1       4.752  25.466  15.795  0.00  0.00    +0.210 HD
ENDBRANCH   4   6
ENDBRANCH   1   4
BRANCH   1   8
ATOM      8  C   THR A   1       6.280  23.709  17.042  0.00  0.00    +0.227 C 
ATOM      9  O   THR A   1       6.072  23.932  15.848  0.00  0.00    -0.287 OA
ENDBRANCH   1   8
TORSDOF 4
REMARK  Name = ../refined-set-2016/2zxd/2zxd_pocket.pdb
REMARK  159 active torsions:
REMARK  status: ('A' for Active; 'I' for Inactive)
REMARK    1  A    between atoms: _1  and  _3
REMARK    2  A    between atoms: _3  and  _4
REMARK    3  A    between atoms: _3  and  _6
REMARK    4  A    between atoms: _6  and  _7
REMARK    5  A    between atoms: _13  and  _15
REMARK    6  A    between atoms: _15  and  _16
REMARK    7  A    between atoms: _15  and  _18
REMARK    8  A    between atoms: _18  and  _19
REMARK    9  A    between atoms: _24  and  _26
REMARK   10  A    between atoms: _26  and  _27
REMARK   11  A    between atoms: _26  and  _29
REMARK   12  A    between atoms: _29  and  _30
REMARK   13  A    between atoms: _35  and  _36
REMARK   14  A    between atoms: _38  and  _40
REMARK   15  A    between atoms: _40  and  _41
REMARK   16  A    between atoms: _40  and  _43
REMARK   17  A    between atoms: _43  and  _44
REMARK   18  A    between atoms: _47  and  _49
REMARK   19  A    between atoms: _49  and  _50
REMARK   20  A    between atoms: _49  and  _52
REMARK   21  A    between atoms: _52  and  _53
REMARK   22  A    between atoms: _63  and  _65
REMARK   23  A    between atoms: _65  and  _66
REMARK   24  A    between atoms: _65  and  _68
REMARK   25  A    between atoms: _68  and  _69
REMARK   26  A    between atoms: _75  and  _77
REMARK   27  A    between atoms: _77  and  _78
REMARK   28  A    between atoms: _77  and  _80
REMARK   29  A    between atoms: _80  and  _81
REMARK   30  A    between atoms: _86  and  _88
REMARK   31  A    between atoms: _88  and  _89
REMARK   32  A    between atoms: _88  and  _91
REMARK   33  A    between atoms: _91  and  _92
REMARK   34  A    between atoms: _97  and  _98
REMARK   35  A    between atoms: _100  and  _102
REMARK   36  A    between atoms: _102  and  _103
REMARK   37  A    between atoms: _106  and  _108
REMARK   38  A    between atoms: _108  and  _109
REMARK   39  A    between atoms: _108  and  _111
REMARK   40  A    between atoms: _111  and  _112
REMARK   41  A    between atoms: _112  and  _113
REMARK   42  A    between atoms: _116  and  _118
REMARK   43  A    between atoms: _118  and  _119
REMARK   44  A    between atoms: _118  and  _121
REMARK   45  A    between atoms: _121  and  _122
REMARK   46  A    between atoms: _132  and  _134
REMARK   47  A    between atoms: _134  and  _135
REMARK   48  A    between atoms: _134  and  _137
REMARK   49  A    between atoms: _137  and  _138
REMARK   50  A    between atoms: _143  and  _144
REMARK   51  A    between atoms: _146  and  _148
REMARK   52  A    between atoms: _148  and  _149
REMARK   53  A    between atoms: _148  and  _151
REMARK   54  A    between atoms: _151  and  _152
REMARK   55  A    between atoms: _155  and  _157
REMARK   56  A    between atoms: _157  and  _158
REMARK   57  A    between atoms: _157  and  _160
REMARK   58  A    between atoms: _160  and  _161
REMARK   59  A    between atoms: _166  and  _168
REMARK   60  A    between atoms: _168  and  _169
REMARK   61  A    between atoms: _168  and  _171
REMARK   62  A    between atoms: _171  and  _172
REMARK   63  A    between atoms: _177  and  _179
REMARK   64  A    between atoms: _179  and  _180
REMARK   65  A    between atoms: _179  and  _182
REMARK   66  A    between atoms: _182  and  _183
REMARK   67  A    between atoms: _186  and  _188
REMARK   68  A    between atoms: _188  and  _189
REMARK   69  A    between atoms: _188  and  _191
REMARK   70  A    between atoms: _191  and  _192
REMARK   71  A    between atoms: _197  and  _198
REMARK   72  A    between atoms: _200  and  _202
REMARK   73  A    between atoms: _202  and  _203
REMARK   74  A    between atoms: _202  and  _205
REMARK   75  A    between atoms: _205  and  _206
REMARK   76  A    between atoms: _208  and  _210
REMARK   77  A    between atoms: _210  and  _211
REMARK   78  A    between atoms: _210  and  _213
REMARK   79  A    between atoms: _213  and  _214
REMARK   80  A    between atoms: _217  and  _219
REMARK   81  A    between atoms: _219  and  _220
REMARK   82  A    between atoms: _219  and  _222
REMARK   83  A    between atoms: _222  and  _223
REMARK   84  A    between atoms: _233  and  _235
REMARK   85  A    between atoms: _235  and  _236
REMARK   86  A    between atoms: _235  and  _238
REMARK   87  A    between atoms: _238  and  _239
REMARK   88  A    between atoms: _242  and  _244
REMARK   89  A    between atoms: _244  and  _245
REMARK   90  A    between atoms: _244  and  _247
REMARK   91  A    between atoms: _247  and  _248
REMARK   92  A    between atoms: _258  and  _260
REMARK   93  A    between atoms: _260  and  _261
REMARK   94  A    between atoms: _260  and  _263
REMARK   95  A    between atoms: _263  and  _264
REMARK   96  A    between atoms: _269  and  _271
REMARK   97  A    between atoms: _271  and  _272
REMARK   98  A    between atoms: _271  and  _274
REMARK   99  A    between atoms: _274  and  _275
REMARK  100  A    between atoms: _278  and  _280
REMARK  101  A    between atoms: _280  and  _281
REMARK  102  A    between atoms: _280  and  _283
REMARK  103  A    between atoms: _283  and  _284
REMARK  104  A    between atoms: _284  and  _285
REMARK  105  A    between atoms: _287  and  _289
REMARK  106  A    between atoms: _289  and  _290
REMARK  107  A    between atoms: _289  and  _292
REMARK  108  A    between atoms: _292  and  _293
REMARK  109  A    between atoms: _298  and  _300
REMARK  110  A    between atoms: _300  and  _301
REMARK  111  A    between atoms: _300  and  _303
REMARK  112  A    between atoms: _303  and  _304
REMARK  113  A    between atoms: _304  and  _305
REMARK  114  A    between atoms: _305  and  _306
REMARK  115  A    between atoms: _315  and  _317
REMARK  116  A    between atoms: _317  and  _318
REMARK  117  A    between atoms: _317  and  _320
REMARK  118  A    between atoms: _320  and  _321
REMARK  119  A    between atoms: _324  and  _326
REMARK  120  A    between atoms: _326  and  _327
REMARK  121  A    between atoms: _330  and  _332
REMARK  122  A    between atoms: _332  and  _333
REMARK  123  A    between atoms: _332  and  _335
REMARK  124  A    between atoms: _335  and  _336
REMARK  125  A    between atoms: _336  and  _337
REMARK  126  A    between atoms: _340  and  _342
REMARK  127  A    between atoms: _342  and  _343
REMARK  128  A    between atoms: _342  and  _345
REMARK  129  A    between atoms: _345  and  _346
REMARK  130  A    between atoms: _351  and  _353
REMARK  131  A    between atoms: _353  and  _354
REMARK  132  A    between atoms: _353  and  _356
REMARK  133  A    between atoms: _356  and  _357
REMARK  134  A    between atoms: _360  and  _362
REMARK  135  A    between atoms: _362  and  _363
REMARK  136  A    between atoms: _362  and  _365
REMARK  137  A    between atoms: _365  and  _366
REMARK  138  A    between atoms: _366  and  _367
REMARK  139  A    between atoms: _367  and  _368
REMARK  140  A    between atoms: _377  and  _379
REMARK  141  A    between atoms: _379  and  _380
REMARK  142  A    between atoms: _382  and  _384
REMARK  143  A    between atoms: _384  and  _385
REMARK  144  A    between atoms: _384  and  _387
REMARK  145  A    between atoms: _387  and  _388
REMARK  146  A    between atoms: _390  and  _392
REMARK  147  A    between atoms: _392  and  _393
REMARK  148  A    between atoms: _392  and  _395
REMARK  149  A    between atoms: _395  and  _396
REMARK  150  A    between atoms: _402  and  _404
REMARK  151  A    between atoms: _404  and  _405
REMARK  152  A    between atoms: _407  and  _409
REMARK  153  A    between atoms: _409  and  _410
REMARK  154  A    between atoms: _409  and  _412
REMARK  155  A    between atoms: _412  and  _413
REMARK  156  A    between atoms: _416  and  _418
REMARK  157  A    between atoms: _418  and  _419
REMARK  158  A    between atoms: _418  and  _421
REMARK  159  A    between atoms: _421  and  _422
REMARK                            x       y       z     vdW  Elec       q    Type
REMARK                         _______ _______ _______ _____ _____    ______ ____
ROOT
ATOM      1  CA  HIS A   2      -2.782  20.667  19.589  0.00  0.00    +0.155 C 
ENDROOT
BRANCH   1   3
ATOM      2  C   HIS A   1      -0.578  21.084  18.743  0.00  0.00    +0.239 C 
ATOM      3  N   HIS A   2      -1.663  21.555  19.336  0.00  0.00    -0.297 N 
ATOM      4  H   HIS A   2      -1.713  22.555  19.619  0.00  0.00    +0.150 HD
ATOM      5  O   HIS A   1      -0.511  19.907  18.368  0.00  0.00    -0.274 OA
BRANCH   2   6
ATOM      6  CA  HIS A   1       0.618  22.026  18.557  0.00  0.00    +0.151 C 
BRANCH   6   7
ATOM      7  N   HIS A   1       1.553  21.429  17.605  0.00  0.00    -0.238 NA
ATOM      8  H   HIS A   1       1.382  21.514  16.583  0.00  0.00    +0.142 HD
ENDBRANCH   6   7
BRANCH   6   9
ATOM      9  CB  HIS A   1       0.189  23.438  18.102  0.00  0.00    +0.074 C 
BRANCH   9  10
ATOM     10  CG  HIS A   1      -0.296  24.302  19.222  0.00  0.00    +0.082 A 
ATOM     11  CD2 HIS A   1       0.379  25.010  20.171  0.00  0.00    +0.115 A 
ATOM     12  NE2 HIS A   1      -0.564  25.572  21.001  0.00  0.00    -0.221 NA
ATOM     13  CE1 HIS A   1      -1.772  25.234  20.575  0.00  0.00    +0.199 A 
ATOM     14  ND1 HIS A   1      -1.640  24.464  19.499  0.00  0.00    -0.227 NA
ENDBRANCH   9  10
ENDBRANCH   6   9
ENDBRANCH   2   6
ENDBRANCH   1   3
BRANCH   1  15
ATOM     15  C   HIS A   2      -3.428  20.010  18.336  0.00  0.00    +0.241 C 
ATOM     16  O   HIS A   2      -4.018  18.917  18.443  0.00  0.00    -0.273 OA
ATOM     17  N   ASP A   3      -3.353  20.678  17.185  0.00  0.00    -0.298 N 
ATOM     18  H   ASP A   3      -2.872  21.599  17.138  0.00  0.00    +0.150 HD
BRANCH  17  19
ATOM     19  CA  ASP A   3      -3.962  20.091  15.984  0.00  0.00    +0.148 C 
BRANCH  19  20
ATOM     20  C   ASP A   3      -3.175  18.877  15.444  0.00  0.00    +0.227 C 
ATOM     21  O   ASP A   3      -3.586  18.240  14.483  0.00  0.00    -0.286 OA
ENDBRANCH  19  20
BRANCH  19  22
ATOM     22  CB  ASP A   3      -4.162  21.155  14.871  0.00  0.00    +0.142 C 
BRANCH  22  23
ATOM     23  CG  ASP A   3      -2.859  21.727  14.352  0.00  0.00    +0.367 C 
ATOM     24  OD2 ASP A   3      -1.774  21.290  14.822  0.00  0.00    -0.246 OA
ATOM     25  OD1 ASP A   3      -2.924  22.638  13.471  0.00  0.00    -0.246 OA
ENDBRANCH  22  23
ENDBRANCH  19  22
ENDBRANCH  17  19
ENDBRANCH   1  15
BRANCH   1  26
ATOM     26  CB  HIS A   2      -3.873  21.408  20.383  0.00  0.00    +0.076 C 
BRANCH  26  27
ATOM     27  CG  HIS A   2      -3.355  22.133  21.591  0.00  0.00    +0.082 A 
ATOM     28  CD2 HIS A   2      -3.854  23.199  22.275  0.00  0.00    +0.115 A 
ATOM     29  NE2 HIS A   2      -2.986  23.457  23.302  0.00  0.00    -0.221 NA
ATOM     30  CE1 HIS A   2      -1.999  22.578  23.266  0.00  0.00    +0.199 A 
ATOM     31  ND1 HIS A   2      -2.192  21.762  22.240  0.00  0.00    -0.227 NA
ENDBRANCH  26  27
ENDBRANCH   1  26
TORSDOF 12
REMARK  Name = ../refined-set-2016/2zxd/2zxd_pocket.pdb
REMARK  159 active torsions:
REMARK  status: ('A' for Active; 'I' for Inactive)
REMARK    1  A    between atoms: _1  and  _3
REMARK    2  A    between atoms: _3  and  _4
REMARK    3  A    between atoms: _3  and  _6
REMARK    4  A    between atoms: _6  and  _7
REMARK    5  A    between atoms: _13  and  _15
REMARK    6  A    between atoms: _15  and  _16
REMARK    7  A    between atoms: _15  and  _18
REMARK    8  A    between atoms: _18  and  _19
REMARK    9  A    between atoms: _24  and  _26
REMARK   10  A    between atoms: _26  and  _27
REMARK   11  A    between atoms: _26  and  _29
REMARK   12  A    between atoms: _29  and  _30
REMARK   13  A    between atoms: _35  and  _36
REMARK   14  A    between atoms: _38  and  _40
REMARK   15  A    between atoms: _40  and  _41
REMARK   16  A    between atoms: _40  and  _43
REMARK   17  A    between atoms: _43  and  _44
REMARK   18  A    between atoms: _47  and  _49
REMARK   19  A    between atoms: _49  and  _50
REMARK   20  A    between atoms: _49  and  _52
REMARK   21  A    between atoms: _52  and  _53
REMARK   22  A    between atoms: _63  and  _65
REMARK   23  A    between atoms: _65  and  _66
REMARK   24  A    between atoms: _65  and  _68
REMARK   25  A    between atoms: _68  and  _69
REMARK   26  A    between atoms: _75  and  _77
REMARK   27  A    between atoms: _77  and  _78
REMARK   28  A    between atoms: _77  and  _80
REMARK   29  A    between atoms: _80  and  _81
REMARK   30  A    between atoms: _86  and  _88
REMARK   31  A    between atoms: _88  and  _89
REMARK   32  A    between atoms: _88  and  _91
REMARK   33  A    between atoms: _91  and  _92
REMARK   34  A    between atoms: _97  and  _98
REMARK   35  A    between atoms: _100  and  _102
REMARK   36  A    between atoms: _102  and  _103
REMARK   37  A    between atoms: _106  and  _108
REMARK   38  A    between atoms: _108  and  _109
REMARK   39  A    between atoms: _108  and  _111
REMARK   40  A    between atoms: _111  and  _112
REMARK   41  A    between atoms: _112  and  _113
REMARK   42  A    between atoms: _116  and  _118
REMARK   43  A    between atoms: _118  and  _119
REMARK   44  A    between atoms: _118  and  _121
REMARK   45  A    between atoms: _121  and  _122
REMARK   46  A    between atoms: _132  and  _134
REMARK   47  A    between atoms: _134  and  _135
REMARK   48  A    between atoms: _134  and  _137
REMARK   49  A    between atoms: _137  and  _138
REMARK   50  A    between atoms: _143  and  _144
REMARK   51  A    between atoms: _146  and  _148
REMARK   52  A    between atoms: _148  and  _149
REMARK   53  A    between atoms: _148  and  _151
REMARK   54  A    between atoms: _151  and  _152
REMARK   55  A    between atoms: _155  and  _157
REMARK   56  A    between atoms: _157  and  _158
REMARK   57  A    between atoms: _157  and  _160
REMARK   58  A    between atoms: _160  and  _161
REMARK   59  A    between atoms: _166  and  _168
REMARK   60  A    between atoms: _168  and  _169
REMARK   61  A    between atoms: _168  and  _171
REMARK   62  A    between atoms: _171  and  _172
REMARK   63  A    between atoms: _177  and  _179
REMARK   64  A    between atoms: _179  and  _180
REMARK   65  A    between atoms: _179  and  _182
REMARK   66  A    between atoms: _182  and  _183
REMARK   67  A    between atoms: _186  and  _188
REMARK   68  A    between atoms: _188  and  _189
REMARK   69  A    between atoms: _188  and  _191
REMARK   70  A    between atoms: _191  and  _192
REMARK   71  A    between atoms: _197  and  _198
REMARK   72  A    between atoms: _200  and  _202
REMARK   73  A    between atoms: _202  and  _203
REMARK   74  A    between atoms: _202  and  _205
REMARK   75  A    between atoms: _205  and  _206
REMARK   76  A    between atoms: _208  and  _210
REMARK   77  A    between atoms: _210  and  _211
REMARK   78  A    between atoms: _210  and  _213
REMARK   79  A    between atoms: _213  and  _214
REMARK   80  A    between atoms: _217  and  _219
REMARK   81  A    between atoms: _219  and  _220
REMARK   82  A    between atoms: _219  and  _222
REMARK   83  A    between atoms: _222  and  _223
REMARK   84  A    between atoms: _233  and  _235
REMARK   85  A    between atoms: _235  and  _236
REMARK   86  A    between atoms: _235  and  _238
REMARK   87  A    between atoms: _238  and  _239
REMARK   88  A    between atoms: _242  and  _244
REMARK   89  A    between atoms: _244  and  _245
REMARK   90  A    between atoms: _244  and  _247
REMARK   91  A    between atoms: _247  and  _248
REMARK   92  A    between atoms: _258  and  _260
REMARK   93  A    between atoms: _260  and  _261
REMARK   94  A    between atoms: _260  and  _263
REMARK   95  A    between atoms: _263  and  _264
REMARK   96  A    between atoms: _269  and  _271
REMARK   97  A    between atoms: _271  and  _272
REMARK   98  A    between atoms: _271  and  _274
REMARK   99  A    between atoms: _274  and  _275
REMARK  100  A    between atoms: _278  and  _280
REMARK  101  A    between atoms: _280  and  _281
REMARK  102  A    between atoms: _280  and  _283
REMARK  103  A    between atoms: _283  and  _284
REMARK  104  A    between atoms: _284  and  _285
REMARK  105  A    between atoms: _287  and  _289
REMARK  106  A    between atoms: _289  and  _290
REMARK  107  A    between atoms: _289  and  _292
REMARK  108  A    between atoms: _292  and  _293
REMARK  109  A    between atoms: _298  and  _300
REMARK  110  A    between atoms: _300  and  _301
REMARK  111  A    between atoms: _300  and  _303
REMARK  112  A    between atoms: _303  and  _304
REMARK  113  A    between atoms: _304  and  _305
REMARK  114  A    between atoms: _305  and  _306
REMARK  115  A    between atoms: _315  and  _317
REMARK  116  A    between atoms: _317  and  _318
REMARK  117  A    between atoms: _317  and  _320
REMARK  118  A    between atoms: _320  and  _321
REMARK  119  A    between atoms: _324  and  _326
REMARK  120  A    between atoms: _326  and  _327
REMARK  121  A    between atoms: _330  and  _332
REMARK  122  A    between atoms: _332  and  _333
REMARK  123  A    between atoms: _332  and  _335
REMARK  124  A    between atoms: _335  and  _336
REMARK  125  A    between atoms: _336  and  _337
REMARK  126  A    between atoms: _340  and  _342
REMARK  127  A    between atoms: _342  and  _343
REMARK  128  A    between atoms: _342  and  _345
REMARK  129  A    between atoms: _345  and  _346
REMARK  130  A    between atoms: _351  and  _353
REMARK  131  A    between atoms: _353  and  _354
REMARK  132  A    between atoms: _353  and  _356
REMARK  133  A    between atoms: _356  and  _357
REMARK  134  A    between atoms: _360  and  _362
REMARK  135  A    between atoms: _362  and  _363
REMARK  136  A    between atoms: _362  and  _365
REMARK  137  A    between atoms: _365  and  _366
REMARK  138  A    between atoms: _366  and  _367
REMARK  139  A    between atoms: _367  and  _368
REMARK  140  A    between atoms: _377  and  _379
REMARK  141  A    between atoms: _379  and  _380
REMARK  142  A    between atoms: _382  and  _384
REMARK  143  A    between atoms: _384  and  _385
REMARK  144  A    between atoms: _384  and  _387
REMARK  145  A    between atoms: _387  and  _388
REMARK  146  A    between atoms: _390  and  _392
REMARK  147  A    between atoms: _392  and  _393
REMARK  148  A    between atoms: _392  and  _395
REMARK  149  A    between atoms: _395  and  _396
REMARK  150  A    between atoms: _402  and  _404
REMARK  151  A    between atoms: _404  and  _405
REMARK  152  A    between atoms: _407  and  _409
REMARK  153  A    between atoms: _409  and  _410
REMARK  154  A    between atoms: _409  and  _412
REMARK  155  A    between atoms: _412  and  _413
REMARK  156  A    between atoms: _416  and  _418
REMARK  157  A    between atoms: _418  and  _419
REMARK  158  A    between atoms: _418  and  _421
REMARK  159  A    between atoms: _421  and  _422
REMARK                            x       y       z     vdW  Elec       q    Type
REMARK                         _______ _______ _______ _____ _____    ______ ____
ROOT
ATOM      1  CG  TYR A   1       5.383  24.154  22.125  0.00  0.00    -0.020 A 
ATOM      2  CD2 TYR A   1       4.845  24.843  23.227  0.00  0.00    -0.001 A 
ATOM      3  CE2 TYR A   1       3.498  24.749  23.541  0.00  0.00    +0.036 A 
ATOM      4  CZ  TYR A   1       2.656  23.951  22.752  0.00  0.00    +0.134 A 
ATOM      5  CE1 TYR A   1       3.148  23.266  21.671  0.00  0.00    +0.036 A 
ATOM      6  CD1 TYR A   1       4.517  23.364  21.362  0.00  0.00    -0.001 A 
ENDROOT
BRANCH   4   7
ATOM      7  OH  TYR A   1       1.327  23.833  23.075  0.00  0.00    -0.506 OA
ATOM      8  HH  TYR A   1       1.132  24.385  23.873  0.00  0.00    +0.292 HD
ENDBRANCH   4   7
BRANCH   1   9
ATOM      9  CB  TYR A   1       6.845  24.320  21.731  0.00  0.00    +0.051 C 
BRANCH   9  10
ATOM     10  CA  TYR A   1       7.713  23.061  21.961  0.00  0.00    +0.137 C 
BRANCH  10  11
ATOM     11  N   TYR A   1       8.985  23.138  21.268  0.00  0.00    -0.239 NA
ATOM     12  H   TYR A   1       9.030  23.584  20.330  0.00  0.00    +0.142 HD
ENDBRANCH  10  11
BRANCH  10  13
ATOM     13  C   TYR A   1       7.011  21.830  21.352  0.00  0.00    +0.224 C 
ATOM     14  O   TYR A   1       7.056  21.619  20.130  0.00  0.00    -0.287 OA
ENDBRANCH  10  13
ENDBRANCH   9  10
ENDBRANCH   1   9
TORSDOF 5
REMARK  Name = ../refined-set-2016/2zxd/2zxd_pocket.pdb
REMARK  159 active torsions:
REMARK  status: ('A' for Active; 'I' for Inactive)
REMARK    1  A    between atoms: _1  and  _3
REMARK    2  A    between atoms: _3  and  _4
REMARK    3  A    between atoms: _3  and  _6
REMARK    4  A    between atoms: _6  and  _7
REMARK    5  A    between atoms: _13  and  _15
REMARK    6  A    between atoms: _15  and  _16
REMARK    7  A    between atoms: _15  and  _18
REMARK    8  A    between atoms: _18  and  _19
REMARK    9  A    between atoms: _24  and  _26
REMARK   10  A    between atoms: _26  and  _27
REMARK   11  A    between atoms: _26  and  _29
REMARK   12  A    between atoms: _29  and  _30
REMARK   13  A    between atoms: _35  and  _36
REMARK   14  A    between atoms: _38  and  _40
REMARK   15  A    between atoms: _40  and  _41
REMARK   16  A    between atoms: _40  and  _43
REMARK   17  A    between atoms: _43  and  _44
REMARK   18  A    between atoms: _47  and  _49
REMARK   19  A    between atoms: _49  and  _50
REMARK   20  A    between atoms: _49  and  _52
REMARK   21  A    between atoms: _52  and  _53
REMARK   22  A    between atoms: _63  and  _65
REMARK   23  A    between atoms: _65  and  _66
REMARK   24  A    between atoms: _65  and  _68
REMARK   25  A    between atoms: _68  and  _69
REMARK   26  A    between atoms: _75  and  _77
REMARK   27  A    between atoms: _77  and  _78
REMARK   28  A    between atoms: _77  and  _80
REMARK   29  A    between atoms: _80  and  _81
REMARK   30  A    between atoms: _86  and  _88
REMARK   31  A    between atoms: _88  and  _89
REMARK   32  A    between atoms: _88  and  _91
REMARK   33  A    between atoms: _91  and  _92
REMARK   34  A    between atoms: _97  and  _98
REMARK   35  A    between atoms: _100  and  _102
REMARK   36  A    between atoms: _102  and  _103
REMARK   37  A    between atoms: _106  and  _108
REMARK   38  A    between atoms: _108  and  _109
REMARK   39  A    between atoms: _108  and  _111
REMARK   40  A    between atoms: _111  and  _112
REMARK   41  A    between atoms: _112  and  _113
REMARK   42  A    between atoms: _116  and  _118
REMARK   43  A    between atoms: _118  and  _119
REMARK   44  A    between atoms: _118  and  _121
REMARK   45  A    between atoms: _121  and  _122
REMARK   46  A    between atoms: _132  and  _134
REMARK   47  A    between atoms: _134  and  _135
REMARK   48  A    between atoms: _134  and  _137
REMARK   49  A    between atoms: _137  and  _138
REMARK   50  A    between atoms: _143  and  _144
REMARK   51  A    between atoms: _146  and  _148
REMARK   52  A    between atoms: _148  and  _149
REMARK   53  A    between atoms: _148  and  _151
REMARK   54  A    between atoms: _151  and  _152
REMARK   55  A    between atoms: _155  and  _157
REMARK   56  A    between atoms: _157  and  _158
REMARK   57  A    between atoms: _157  and  _160
REMARK   58  A    between atoms: _160  and  _161
REMARK   59  A    between atoms: _166  and  _168
REMARK   60  A    between atoms: _168  and  _169
REMARK   61  A    between atoms: _168  and  _171
REMARK   62  A    between atoms: _171  and  _172
REMARK   63  A    between atoms: _177  and  _179
REMARK   64  A    between atoms: _179  and  _180
REMARK   65  A    between atoms: _179  and  _182
REMARK   66  A    between atoms: _182  and  _183
REMARK   67  A    between atoms: _186  and  _188
REMARK   68  A    between atoms: _188  and  _189
REMARK   69  A    between atoms: _188  and  _191
REMARK   70  A    between atoms: _191  and  _192
REMARK   71  A    between atoms: _197  and  _198
REMARK   72  A    between atoms: _200  and  _202
REMARK   73  A    between atoms: _202  and  _203
REMARK   74  A    between atoms: _202  and  _205
REMARK   75  A    between atoms: _205  and  _206
REMARK   76  A    between atoms: _208  and  _210
REMARK   77  A    between atoms: _210  and  _211
REMARK   78  A    between atoms: _210  and  _213
REMARK   79  A    between atoms: _213  and  _214
REMARK   80  A    between atoms: _217  and  _219
REMARK   81  A    between atoms: _219  and  _220
REMARK   82  A    between atoms: _219  and  _222
REMARK   83  A    between atoms: _222  and  _223
REMARK   84  A    between atoms: _233  and  _235
REMARK   85  A    between atoms: _235  and  _236
REMARK   86  A    between atoms: _235  and  _238
REMARK   87  A    between atoms: _238  and  _239
REMARK   88  A    between atoms: _242  and  _244
REMARK   89  A    between atoms: _244  and  _245
REMARK   90  A    between atoms: _244  and  _247
REMARK   91  A    between atoms: _247  and  _248
REMARK   92  A    between atoms: _258  and  _260
REMARK   93  A    between atoms: _260  and  _261
REMARK   94  A    between atoms: _260  and  _263
REMARK   95  A    between atoms: _263  and  _264
REMARK   96  A    between atoms: _269  and  _271
REMARK   97  A    between atoms: _271  and  _272
REMARK   98  A    between atoms: _271  and  _274
REMARK   99  A    between atoms: _274  and  _275
REMARK  100  A    between atoms: _278  and  _280
REMARK  101  A    between atoms: _280  and  _281
REMARK  102  A    between atoms: _280  and  _283
REMARK  103  A    between atoms: _283  and  _284
REMARK  104  A    between atoms: _284  and  _285
REMARK  105  A    between atoms: _287  and  _289
REMARK  106  A    between atoms: _289  and  _290
REMARK  107  A    between atoms: _289  and  _292
REMARK  108  A    between atoms: _292  and  _293
REMARK  109  A    between atoms: _298  and  _300
REMARK  110  A    between atoms: _300  and  _301
REMARK  111  A    between atoms: _300  and  _303
REMARK  112  A    between atoms: _303  and  _304
REMARK  113  A    between atoms: _304  and  _305
REMARK  114  A    between atoms: _305  and  _306
REMARK  115  A    between atoms: _315  and  _317
REMARK  116  A    between atoms: _317  and  _318
REMARK  117  A    between atoms: _317  and  _320
REMARK  118  A    between atoms: _320  and  _321
REMARK  119  A    between atoms: _324  and  _326
REMARK  120  A    between atoms: _326  and  _327
REMARK  121  A    between atoms: _330  and  _332
REMARK  122  A    between atoms: _332  and  _333
REMARK  123  A    between atoms: _332  and  _335
REMARK  124  A    between atoms: _335  and  _336
REMARK  125  A    between atoms: _336  and  _337
REMARK  126  A    between atoms: _340  and  _342
REMARK  127  A    between atoms: _342  and  _343
REMARK  128  A    between atoms: _342  and  _345
REMARK  129  A    between atoms: _345  and  _346
REMARK  130  A    between atoms: _351  and  _353
REMARK  131  A    between atoms: _353  and  _354
REMARK  132  A    between atoms: _353  and  _356
REMARK  133  A    between atoms: _356  and  _357
REMARK  134  A    between atoms: _360  and  _362
REMARK  135  A    between atoms: _362  and  _363
REMARK  136  A    between atoms: _362  and  _365
REMARK  137  A    between atoms: _365  and  _366
REMARK  138  A    between atoms: _366  and  _367
REMARK  139  A    between atoms: _367  and  _368
REMARK  140  A    between atoms: _377  and  _379
REMARK  141  A    between atoms: _379  and  _380
REMARK  142  A    between atoms: _382  and  _384
REMARK  143  A    between atoms: _384  and  _385
REMARK  144  A    between atoms: _384  and  _387
REMARK  145  A    between atoms: _387  and  _388
REMARK  146  A    between atoms: _390  and  _392
REMARK  147  A    between atoms: _392  and  _393
REMARK  148  A    between atoms: _392  and  _395
REMARK  149  A    between atoms: _395  and  _396
REMARK  150  A    between atoms: _402  and  _404
REMARK  151  A    between atoms: _404  and  _405
REMARK  152  A    between atoms: _407  and  _409
REMARK  153  A    between atoms: _409  and  _410
REMARK  154  A    between atoms: _409  and  _412
REMARK  155  A    between atoms: _412  and  _413
REMARK  156  A    between atoms: _416  and  _418
REMARK  157  A    between atoms: _418  and  _419
REMARK  158  A    between atoms: _418  and  _421
REMARK  159  A    between atoms: _421  and  _422
REMARK                            x       y       z     vdW  Elec       q    Type
REMARK                         _______ _______ _______ _____ _____    ______ ____
ROOT
ATOM      1  CA  SER A   1       1.922  19.467  22.578  0.00  0.00    +0.163 C 
ENDROOT
BRANCH   1   2
ATOM      2  N   SER A   1       3.219  19.608  21.893  0.00  0.00    -0.237 NA
ATOM      3  H   SER A   1       3.253  19.572  20.854  0.00  0.00    +0.142 HD
ENDBRANCH   1   2
BRANCH   1   4
ATOM      4  CB  SER A   1       1.804  17.990  23.003  0.00  0.00    +0.227 C 
ATOM      5  OG  SER A   1       1.209  17.171  22.306  0.00  0.00    -0.287 OA
ENDBRANCH   1   4
BRANCH   1   6
ATOM      6  C   SER A   1       0.781  19.838  21.635  0.00  0.00    +0.162 C 
BRANCH   6   7
ATOM      7  O   SER A   1      -0.498  19.779  22.272  0.00  0.00    -0.380 OA
ATOM      8  H   SER A   1      -0.660  18.859  22.600  0.00  0.00    +0.211 HD
ENDBRANCH   6   7
ENDBRANCH   1   6
TORSDOF 4
REMARK  Name = ../refined-set-2016/2zxd/2zxd_pocket.pdb
REMARK  159 active torsions:
REMARK  status: ('A' for Active; 'I' for Inactive)
REMARK    1  A    between atoms: _1  and  _3
REMARK    2  A    between atoms: _3  and  _4
REMARK    3  A    between atoms: _3  and  _6
REMARK    4  A    between atoms: _6  and  _7
REMARK    5  A    between atoms: _13  and  _15
REMARK    6  A    between atoms: _15  and  _16
REMARK    7  A    between atoms: _15  and  _18
REMARK    8  A    between atoms: _18  and  _19
REMARK    9  A    between atoms: _24  and  _26
REMARK   10  A    between atoms: _26  and  _27
REMARK   11  A    between atoms: _26  and  _29
REMARK   12  A    between atoms: _29  and  _30
REMARK   13  A    between atoms: _35  and  _36
REMARK   14  A    between atoms: _38  and  _40
REMARK   15  A    between atoms: _40  and  _41
REMARK   16  A    between atoms: _40  and  _43
REMARK   17  A    between atoms: _43  and  _44
REMARK   18  A    between atoms: _47  and  _49
REMARK   19  A    between atoms: _49  and  _50
REMARK   20  A    between atoms: _49  and  _52
REMARK   21  A    between atoms: _52  and  _53
REMARK   22  A    between atoms: _63  and  _65
REMARK   23  A    between atoms: _65  and  _66
REMARK   24  A    between atoms: _65  and  _68
REMARK   25  A    between atoms: _68  and  _69
REMARK   26  A    between atoms: _75  and  _77
REMARK   27  A    between atoms: _77  and  _78
REMARK   28  A    between atoms: _77  and  _80
REMARK   29  A    between atoms: _80  and  _81
REMARK   30  A    between atoms: _86  and  _88
REMARK   31  A    between atoms: _88  and  _89
REMARK   32  A    between atoms: _88  and  _91
REMARK   33  A    between atoms: _91  and  _92
REMARK   34  A    between atoms: _97  and  _98
REMARK   35  A    between atoms: _100  and  _102
REMARK   36  A    between atoms: _102  and  _103
REMARK   37  A    between atoms: _106  and  _108
REMARK   38  A    between atoms: _108  and  _109
REMARK   39  A    between atoms: _108  and  _111
REMARK   40  A    between atoms: _111  and  _112
REMARK   41  A    between atoms: _112  and  _113
REMARK   42  A    between atoms: _116  and  _118
REMARK   43  A    between atoms: _118  and  _119
REMARK   44  A    between atoms: _118  and  _121
REMARK   45  A    between atoms: _121  and  _122
REMARK   46  A    between atoms: _132  and  _134
REMARK   47  A    between atoms: _134  and  _135
REMARK   48  A    between atoms: _134  and  _137
REMARK   49  A    between atoms: _137  and  _138
REMARK   50  A    between atoms: _143  and  _144
REMARK   51  A    between atoms: _146  and  _148
REMARK   52  A    between atoms: _148  and  _149
REMARK   53  A    between atoms: _148  and  _151
REMARK   54  A    between atoms: _151  and  _152
REMARK   55  A    between atoms: _155  and  _157
REMARK   56  A    between atoms: _157  and  _158
REMARK   57  A    between atoms: _157  and  _160
REMARK   58  A    between atoms: _160  and  _161
REMARK   59  A    between atoms: _166  and  _168
REMARK   60  A    between atoms: _168  and  _169
REMARK   61  A    between atoms: _168  and  _171
REMARK   62  A    between atoms: _171  and  _172
REMARK   63  A    between atoms: _177  and  _179
REMARK   64  A    between atoms: _179  and  _180
REMARK   65  A    between atoms: _179  and  _182
REMARK   66  A    between atoms: _182  and  _183
REMARK   67  A    between atoms: _186  and  _188
REMARK   68  A    between atoms: _188  and  _189
REMARK   69  A    between atoms: _188  and  _191
REMARK   70  A    between atoms: _191  and  _192
REMARK   71  A    between atoms: _197  and  _198
REMARK   72  A    between atoms: _200  and  _202
REMARK   73  A    between atoms: _202  and  _203
REMARK   74  A    between atoms: _202  and  _205
REMARK   75  A    between atoms: _205  and  _206
REMARK   76  A    between atoms: _208  and  _210
REMARK   77  A    between atoms: _210  and  _211
REMARK   78  A    between atoms: _210  and  _213
REMARK   79  A    between atoms: _213  and  _214
REMARK   80  A    between atoms: _217  and  _219
REMARK   81  A    between atoms: _219  and  _220
REMARK   82  A    between atoms: _219  and  _222
REMARK   83  A    between atoms: _222  and  _223
REMARK   84  A    between atoms: _233  and  _235
REMARK   85  A    between atoms: _235  and  _236
REMARK   86  A    between atoms: _235  and  _238
REMARK   87  A    between atoms: _238  and  _239
REMARK   88  A    between atoms: _242  and  _244
REMARK   89  A    between atoms: _244  and  _245
REMARK   90  A    between atoms: _244  and  _247
REMARK   91  A    between atoms: _247  and  _248
REMARK   92  A    between atoms: _258  and  _260
REMARK   93  A    between atoms: _260  and  _261
REMARK   94  A    between atoms: _260  and  _263
REMARK   95  A    between atoms: _263  and  _264
REMARK   96  A    between atoms: _269  and  _271
REMARK   97  A    between atoms: _271  and  _272
REMARK   98  A    between atoms: _271  and  _274
REMARK   99  A    between atoms: _274  and  _275
REMARK  100  A    between atoms: _278  and  _280
REMARK  101  A    between atoms: _280  and  _281
REMARK  102  A    between atoms: _280  and  _283
REMARK  103  A    between atoms: _283  and  _284
REMARK  104  A    between atoms: _284  and  _285
REMARK  105  A    between atoms: _287  and  _289
REMARK  106  A    between atoms: _289  and  _290
REMARK  107  A    between atoms: _289  and  _292
REMARK  108  A    between atoms: _292  and  _293
REMARK  109  A    between atoms: _298  and  _300
REMARK  110  A    between atoms: _300  and  _301
REMARK  111  A    between atoms: _300  and  _303
REMARK  112  A    between atoms: _303  and  _304
REMARK  113  A    between atoms: _304  and  _305
REMARK  114  A    between atoms: _305  and  _306
REMARK  115  A    between atoms: _315  and  _317
REMARK  116  A    between atoms: _317  and  _318
REMARK  117  A    between atoms: _317  and  _320
REMARK  118  A    between atoms: _320  and  _321
REMARK  119  A    between atoms: _324  and  _326
REMARK  120  A    between atoms: _326  and  _327
REMARK  121  A    between atoms: _330  and  _332
REMARK  122  A    between atoms: _332  and  _333
REMARK  123  A    between atoms: _332  and  _335
REMARK  124  A    between atoms: _335  and  _336
REMARK  125  A    between atoms: _336  and  _337
REMARK  126  A    between atoms: _340  and  _342
REMARK  127  A    between atoms: _342  and  _343
REMARK  128  A    between atoms: _342  and  _345
REMARK  129  A    between atoms: _345  and  _346
REMARK  130  A    between atoms: _351  and  _353
REMARK  131  A    between atoms: _353  and  _354
REMARK  132  A    between atoms: _353  and  _356
REMARK  133  A    between atoms: _356  and  _357
REMARK  134  A    between atoms: _360  and  _362
REMARK  135  A    between atoms: _362  and  _363
REMARK  136  A    between atoms: _362  and  _365
REMARK  137  A    between atoms: _365  and  _366
REMARK  138  A    between atoms: _366  and  _367
REMARK  139  A    between atoms: _367  and  _368
REMARK  140  A    between atoms: _377  and  _379
REMARK  141  A    between atoms: _379  and  _380
REMARK  142  A    between atoms: _382  and  _384
REMARK  143  A    between atoms: _384  and  _385
REMARK  144  A    between atoms: _384  and  _387
REMARK  145  A    between atoms: _387  and  _388
REMARK  146  A    between atoms: _390  and  _392
REMARK  147  A    between atoms: _392  and  _393
REMARK  148  A    between atoms: _392  and  _395
REMARK  149  A    between atoms: _395  and  _396
REMARK  150  A    between atoms: _402  and  _404
REMARK  151  A    between atoms: _404  and  _405
REMARK  152  A    between atoms: _407  and  _409
REMARK  153  A    between atoms: _409  and  _410
REMARK  154  A    between atoms: _409  and  _412
REMARK  155  A    between atoms: _412  and  _413
REMARK  156  A    between atoms: _416  and  _418
REMARK  157  A    between atoms: _418  and  _419
REMARK  158  A    between atoms: _418  and  _421
REMARK  159  A    between atoms: _421  and  _422
REMARK                            x       y       z     vdW  Elec       q    Type
REMARK                         _______ _______ _______ _____ _____    ______ ____
ROOT
ATOM      1  CA  LEU A   1      -3.364  17.307  23.439  0.00  0.00    +0.133 C 
ENDROOT
BRANCH   1   2
ATOM      2  N   LEU A   1      -2.209  17.230  24.298  0.00  0.00    -0.239 NA
ATOM      3  H   LEU A   1      -1.313  17.658  23.990  0.00  0.00    +0.142 HD
ENDBRANCH   1   2
BRANCH   1   4
ATOM      4  C   LEU A   1      -2.961  17.063  22.017  0.00  0.00    +0.224 C 
ATOM      5  O   LEU A   1      -1.918  17.528  21.569  0.00  0.00    -0.287 OA
ENDBRANCH   1   4
BRANCH   1   6
ATOM      6  CB  LEU A   1      -4.020  18.731  23.498  0.00  0.00    +0.025 C 
BRANCH   6   7
ATOM      7  CG  LEU A   1      -4.755  19.237  24.748  0.00  0.00    +0.002 C 
ATOM      8  CD2 LEU A   1      -5.867  18.224  25.161  0.00  0.00    +0.000 C 
ATOM      9  CD1 LEU A   1      -5.369  20.638  24.479  0.00  0.00    +0.000 C 
ENDBRANCH   6   7
ENDBRANCH   1   6
TORSDOF 4
REMARK  Name = ../refined-set-2016/2zxd/2zxd_pocket.pdb
REMARK  159 active torsions:
REMARK  status: ('A' for Active; 'I' for Inactive)
REMARK    1  A    between atoms: _1  and  _3
REMARK    2  A    between atoms: _3  and  _4
REMARK    3  A    between atoms: _3  and  _6
REMARK    4  A    between atoms: _6  and  _7
REMARK    5  A    between atoms: _13  and  _15
REMARK    6  A    between atoms: _15  and  _16
REMARK    7  A    between atoms: _15  and  _18
REMARK    8  A    between atoms: _18  and  _19
REMARK    9  A    between atoms: _24  and  _26
REMARK   10  A    between atoms: _26  and  _27
REMARK   11  A    between atoms: _26  and  _29
REMARK   12  A    between atoms: _29  and  _30
REMARK   13  A    between atoms: _35  and  _36
REMARK   14  A    between atoms: _38  and  _40
REMARK   15  A    between atoms: _40  and  _41
REMARK   16  A    between atoms: _40  and  _43
REMARK   17  A    between atoms: _43  and  _44
REMARK   18  A    between atoms: _47  and  _49
REMARK   19  A    between atoms: _49  and  _50
REMARK   20  A    between atoms: _49  and  _52
REMARK   21  A    between atoms: _52  and  _53
REMARK   22  A    between atoms: _63  and  _65
REMARK   23  A    between atoms: _65  and  _66
REMARK   24  A    between atoms: _65  and  _68
REMARK   25  A    between atoms: _68  and  _69
REMARK   26  A    between atoms: _75  and  _77
REMARK   27  A    between atoms: _77  and  _78
REMARK   28  A    between atoms: _77  and  _80
REMARK   29  A    between atoms: _80  and  _81
REMARK   30  A    between atoms: _86  and  _88
REMARK   31  A    between atoms: _88  and  _89
REMARK   32  A    between atoms: _88  and  _91
REMARK   33  A    between atoms: _91  and  _92
REMARK   34  A    between atoms: _97  and  _98
REMARK   35  A    between atoms: _100  and  _102
REMARK   36  A    between atoms: _102  and  _103
REMARK   37  A    between atoms: _106  and  _108
REMARK   38  A    between atoms: _108  and  _109
REMARK   39  A    between atoms: _108  and  _111
REMARK   40  A    between atoms: _111  and  _112
REMARK   41  A    between atoms: _112  and  _113
REMARK   42  A    between atoms: _116  and  _118
REMARK   43  A    between atoms: _118  and  _119
REMARK   44  A    between atoms: _118  and  _121
REMARK   45  A    between atoms: _121  and  _122
REMARK   46  A    between atoms: _132  and  _134
REMARK   47  A    between atoms: _134  and  _135
REMARK   48  A    between atoms: _134  and  _137
REMARK   49  A    between atoms: _137  and  _138
REMARK   50  A    between atoms: _143  and  _144
REMARK   51  A    between atoms: _146  and  _148
REMARK   52  A    between atoms: _148  and  _149
REMARK   53  A    between atoms: _148  and  _151
REMARK   54  A    between atoms: _151  and  _152
REMARK   55  A    between atoms: _155  and  _157
REMARK   56  A    between atoms: _157  and  _158
REMARK   57  A    between atoms: _157  and  _160
REMARK   58  A    between atoms: _160  and  _161
REMARK   59  A    between atoms: _166  and  _168
REMARK   60  A    between atoms: _168  and  _169
REMARK   61  A    between atoms: _168  and  _171
REMARK   62  A    between atoms: _171  and  _172
REMARK   63  A    between atoms: _177  and  _179
REMARK   64  A    between atoms: _179  and  _180
REMARK   65  A    between atoms: _179  and  _182
REMARK   66  A    between atoms: _182  and  _183
REMARK   67  A    between atoms: _186  and  _188
REMARK   68  A    between atoms: _188  and  _189
REMARK   69  A    between atoms: _188  and  _191
REMARK   70  A    between atoms: _191  and  _192
REMARK   71  A    between atoms: _197  and  _198
REMARK   72  A    between atoms: _200  and  _202
REMARK   73  A    between atoms: _202  and  _203
REMARK   74  A    between atoms: _202  and  _205
REMARK   75  A    between atoms: _205  and  _206
REMARK   76  A    between atoms: _208  and  _210
REMARK   77  A    between atoms: _210  and  _211
REMARK   78  A    between atoms: _210  and  _213
REMARK   79  A    between atoms: _213  and  _214
REMARK   80  A    between atoms: _217  and  _219
REMARK   81  A    between atoms: _219  and  _220
REMARK   82  A    between atoms: _219  and  _222
REMARK   83  A    between atoms: _222  and  _223
REMARK   84  A    between atoms: _233  and  _235
REMARK   85  A    between atoms: _235  and  _236
REMARK   86  A    between atoms: _235  and  _238
REMARK   87  A    between atoms: _238  and  _239
REMARK   88  A    between atoms: _242  and  _244
REMARK   89  A    between atoms: _244  and  _245
REMARK   90  A    between atoms: _244  and  _247
REMARK   91  A    between atoms: _247  and  _248
REMARK   92  A    between atoms: _258  and  _260
REMARK   93  A    between atoms: _260  and  _261
REMARK   94  A    between atoms: _260  and  _263
REMARK   95  A    between atoms: _263  and  _264
REMARK   96  A    between atoms: _269  and  _271
REMARK   97  A    between atoms: _271  and  _272
REMARK   98  A    between atoms: _271  and  _274
REMARK   99  A    between atoms: _274  and  _275
REMARK  100  A    between atoms: _278  and  _280
REMARK  101  A    between atoms: _280  and  _281
REMARK  102  A    between atoms: _280  and  _283
REMARK  103  A    between atoms: _283  and  _284
REMARK  104  A    between atoms: _284  and  _285
REMARK  105  A    between atoms: _287  and  _289
REMARK  106  A    between atoms: _289  and  _290
REMARK  107  A    between atoms: _289  and  _292
REMARK  108  A    between atoms: _292  and  _293
REMARK  109  A    between atoms: _298  and  _300
REMARK  110  A    between atoms: _300  and  _301
REMARK  111  A    between atoms: _300  and  _303
REMARK  112  A    between atoms: _303  and  _304
REMARK  113  A    between atoms: _304  and  _305
REMARK  114  A    between atoms: _305  and  _306
REMARK  115  A    between atoms: _315  and  _317
REMARK  116  A    between atoms: _317  and  _318
REMARK  117  A    between atoms: _317  and  _320
REMARK  118  A    between atoms: _320  and  _321
REMARK  119  A    between atoms: _324  and  _326
REMARK  120  A    between atoms: _326  and  _327
REMARK  121  A    between atoms: _330  and  _332
REMARK  122  A    between atoms: _332  and  _333
REMARK  123  A    between atoms: _332  and  _335
REMARK  124  A    between atoms: _335  and  _336
REMARK  125  A    between atoms: _336  and  _337
REMARK  126  A    between atoms: _340  and  _342
REMARK  127  A    between atoms: _342  and  _343
REMARK  128  A    between atoms: _342  and  _345
REMARK  129  A    between atoms: _345  and  _346
REMARK  130  A    between atoms: _351  and  _353
REMARK  131  A    between atoms: _353  and  _354
REMARK  132  A    between atoms: _353  and  _356
REMARK  133  A    between atoms: _356  and  _357
REMARK  134  A    between atoms: _360  and  _362
REMARK  135  A    between atoms: _362  and  _363
REMARK  136  A    between atoms: _362  and  _365
REMARK  137  A    between atoms: _365  and  _366
REMARK  138  A    between atoms: _366  and  _367
REMARK  139  A    between atoms: _367  and  _368
REMARK  140  A    between atoms: _377  and  _379
REMARK  141  A    between atoms: _379  and  _380
REMARK  142  A    between atoms: _382  and  _384
REMARK  143  A    between atoms: _384  and  _385
REMARK  144  A    between atoms: _384  and  _387
REMARK  145  A    between atoms: _387  and  _388
REMARK  146  A    between atoms: _390  and  _392
REMARK  147  A    between atoms: _392  and  _393
REMARK  148  A    between atoms: _392  and  _395
REMARK  149  A    between atoms: _395  and  _396
REMARK  150  A    between atoms: _402  and  _404
REMARK  151  A    between atoms: _404  and  _405
REMARK  152  A    between atoms: _407  and  _409
REMARK  153  A    between atoms: _409  and  _410
REMARK  154  A    between atoms: _409  and  _412
REMARK  155  A    between atoms: _412  and  _413
REMARK  156  A    between atoms: _416  and  _418
REMARK  157  A    between atoms: _418  and  _419
REMARK  158  A    between atoms: _418  and  _421
REMARK  159  A    between atoms: _421  and  _422
REMARK                            x       y       z     vdW  Elec       q    Type
REMARK                         _______ _______ _______ _____ _____    ______ ____
ROOT
ATOM      1  CG  TRP A   1      -7.468  18.934  18.898  0.00  0.00    -0.002 A 
ATOM      2  CD1 TRP A   1      -7.703  18.529  20.200  0.00  0.00    +0.068 A 
ATOM      3  NE1 TRP A   1      -7.662  19.615  21.052  0.00  0.00    -0.352 N 
ATOM      4  HE1 TRP A   1      -7.799  19.582  22.082  0.00  0.00    +0.166 HD
ATOM      5  CE2 TRP A   1      -7.410  20.747  20.315  0.00  0.00    +0.056 A 
ATOM      6  CZ2 TRP A   1      -7.272  22.089  20.732  0.00  0.00    +0.017 A 
ATOM      7  CH2 TRP A   1      -7.002  23.021  19.768  0.00  0.00    +0.001 A 
ATOM      8  CZ3 TRP A   1      -6.865  22.657  18.382  0.00  0.00    +0.000 A 
ATOM      9  CE3 TRP A   1      -7.011  21.326  17.967  0.00  0.00    +0.001 A 
ATOM     10  CD2 TRP A   1      -7.285  20.349  18.945  0.00  0.00    +0.013 A 
ENDROOT
BRANCH   1  11
ATOM     11  CB  TRP A   1      -7.344  18.045  17.678  0.00  0.00    +0.053 C 
BRANCH  11  12
ATOM     12  CA  TRP A   1      -6.876  16.624  18.101  0.00  0.00    +0.137 C 
BRANCH  12  13
ATOM     13  N   TRP A   1      -5.556  16.727  18.678  0.00  0.00    -0.239 NA
ATOM     14  H   TRP A   1      -5.020  17.610  18.555  0.00  0.00    +0.142 HD
ENDBRANCH  12  13
BRANCH  12  15
ATOM     15  C   TRP A   1      -6.977  15.597  16.943  0.00  0.00    +0.224 C 
ATOM     16  O   TRP A   1      -8.060  15.372  16.424  0.00  0.00    -0.287 OA
ENDBRANCH  12  15
ENDBRANCH  11  12
ENDBRANCH   1  11
TORSDOF 4
REMARK  Name = ../refined-set-2016/2zxd/2zxd_pocket.pdb
REMARK  159 active torsions:
REMARK  status: ('A' for Active; 'I' for Inactive)
REMARK    1  A    between atoms: _1  and  _3
REMARK    2  A    between atoms: _3  and  _4
REMARK    3  A    between atoms: _3  and  _6
REMARK    4  A    between atoms: _6  and  _7
REMARK    5  A    between atoms: _13  and  _15
REMARK    6  A    between atoms: _15  and  _16
REMARK    7  A    between atoms: _15  and  _18
REMARK    8  A    between atoms: _18  and  _19
REMARK    9  A    between atoms: _24  and  _26
REMARK   10  A    between atoms: _26  and  _27
REMARK   11  A    between atoms: _26  and  _29
REMARK   12  A    between atoms: _29  and  _30
REMARK   13  A    between atoms: _35  and  _36
REMARK   14  A    between atoms: _38  and  _40
REMARK   15  A    between atoms: _40  and  _41
REMARK   16  A    between atoms: _40  and  _43
REMARK   17  A    between atoms: _43  and  _44
REMARK   18  A    between atoms: _47  and  _49
REMARK   19  A    between atoms: _49  and  _50
REMARK   20  A    between atoms: _49  and  _52
REMARK   21  A    between atoms: _52  and  _53
REMARK   22  A    between atoms: _63  and  _65
REMARK   23  A    between atoms: _65  and  _66
REMARK   24  A    between atoms: _65  and  _68
REMARK   25  A    between atoms: _68  and  _69
REMARK   26  A    between atoms: _75  and  _77
REMARK   27  A    between atoms: _77  and  _78
REMARK   28  A    between atoms: _77  and  _80
REMARK   29  A    between atoms: _80  and  _81
REMARK   30  A    between atoms: _86  and  _88
REMARK   31  A    between atoms: _88  and  _89
REMARK   32  A    between atoms: _88  and  _91
REMARK   33  A    between atoms: _91  and  _92
REMARK   34  A    between atoms: _97  and  _98
REMARK   35  A    between atoms: _100  and  _102
REMARK   36  A    between atoms: _102  and  _103
REMARK   37  A    between atoms: _106  and  _108
REMARK   38  A    between atoms: _108  and  _109
REMARK   39  A    between atoms: _108  and  _111
REMARK   40  A    between atoms: _111  and  _112
REMARK   41  A    between atoms: _112  and  _113
REMARK   42  A    between atoms: _116  and  _118
REMARK   43  A    between atoms: _118  and  _119
REMARK   44  A    between atoms: _118  and  _121
REMARK   45  A    between atoms: _121  and  _122
REMARK   46  A    between atoms: _132  and  _134
REMARK   47  A    between atoms: _134  and  _135
REMARK   48  A    between atoms: _134  and  _137
REMARK   49  A    between atoms: _137  and  _138
REMARK   50  A    between atoms: _143  and  _144
REMARK   51  A    between atoms: _146  and  _148
REMARK   52  A    between atoms: _148  and  _149
REMARK   53  A    between atoms: _148  and  _151
REMARK   54  A    between atoms: _151  and  _152
REMARK   55  A    between atoms: _155  and  _157
REMARK   56  A    between atoms: _157  and  _158
REMARK   57  A    between atoms: _157  and  _160
REMARK   58  A    between atoms: _160  and  _161
REMARK   59  A    between atoms: _166  and  _168
REMARK   60  A    between atoms: _168  and  _169
REMARK   61  A    between atoms: _168  and  _171
REMARK   62  A    between atoms: _171  and  _172
REMARK   63  A    between atoms: _177  and  _179
REMARK   64  A    between atoms: _179  and  _180
REMARK   65  A    between atoms: _179  and  _182
REMARK   66  A    between atoms: _182  and  _183
REMARK   67  A    between atoms: _186  and  _188
REMARK   68  A    between atoms: _188  and  _189
REMARK   69  A    between atoms: _188  and  _191
REMARK   70  A    between atoms: _191  and  _192
REMARK   71  A    between atoms: _197  and  _198
REMARK   72  A    between atoms: _200  and  _202
REMARK   73  A    between atoms: _202  and  _203
REMARK   74  A    between atoms: _202  and  _205
REMARK   75  A    between atoms: _205  and  _206
REMARK   76  A    between atoms: _208  and  _210
REMARK   77  A    between atoms: _210  and  _211
REMARK   78  A    between atoms: _210  and  _213
REMARK   79  A    between atoms: _213  and  _214
REMARK   80  A    between atoms: _217  and  _219
REMARK   81  A    between atoms: _219  and  _220
REMARK   82  A    between atoms: _219  and  _222
REMARK   83  A    between atoms: _222  and  _223
REMARK   84  A    between atoms: _233  and  _235
REMARK   85  A    between atoms: _235  and  _236
REMARK   86  A    between atoms: _235  and  _238
REMARK   87  A    between atoms: _238  and  _239
REMARK   88  A    between atoms: _242  and  _244
REMARK   89  A    between atoms: _244  and  _245
REMARK   90  A    between atoms: _244  and  _247
REMARK   91  A    between atoms: _247  and  _248
REMARK   92  A    between atoms: _258  and  _260
REMARK   93  A    between atoms: _260  and  _261
REMARK   94  A    between atoms: _260  and  _263
REMARK   95  A    between atoms: _263  and  _264
REMARK   96  A    between atoms: _269  and  _271
REMARK   97  A    between atoms: _271  and  _272
REMARK   98  A    between atoms: _271  and  _274
REMARK   99  A    between atoms: _274  and  _275
REMARK  100  A    between atoms: _278  and  _280
REMARK  101  A    between atoms: _280  and  _281
REMARK  102  A    between atoms: _280  and  _283
REMARK  103  A    between atoms: _283  and  _284
REMARK  104  A    between atoms: _284  and  _285
REMARK  105  A    between atoms: _287  and  _289
REMARK  106  A    between atoms: _289  and  _290
REMARK  107  A    between atoms: _289  and  _292
REMARK  108  A    between atoms: _292  and  _293
REMARK  109  A    between atoms: _298  and  _300
REMARK  110  A    between atoms: _300  and  _301
REMARK  111  A    between atoms: _300  and  _303
REMARK  112  A    between atoms: _303  and  _304
REMARK  113  A    between atoms: _304  and  _305
REMARK  114  A    between atoms: _305  and  _306
REMARK  115  A    between atoms: _315  and  _317
REMARK  116  A    between atoms: _317  and  _318
REMARK  117  A    between atoms: _317  and  _320
REMARK  118  A    between atoms: _320  and  _321
REMARK  119  A    between atoms: _324  and  _326
REMARK  120  A    between atoms: _326  and  _327
REMARK  121  A    between atoms: _330  and  _332
REMARK  122  A    between atoms: _332  and  _333
REMARK  123  A    between atoms: _332  and  _335
REMARK  124  A    between atoms: _335  and  _336
REMARK  125  A    between atoms: _336  and  _337
REMARK  126  A    between atoms: _340  and  _342
REMARK  127  A    between atoms: _342  and  _343
REMARK  128  A    between atoms: _342  and  _345
REMARK  129  A    between atoms: _345  and  _346
REMARK  130  A    between atoms: _351  and  _353
REMARK  131  A    between atoms: _353  and  _354
REMARK  132  A    between atoms: _353  and  _356
REMARK  133  A    between atoms: _356  and  _357
REMARK  134  A    between atoms: _360  and  _362
REMARK  135  A    between atoms: _362  and  _363
REMARK  136  A    between atoms: _362  and  _365
REMARK  137  A    between atoms: _365  and  _366
REMARK  138  A    between atoms: _366  and  _367
REMARK  139  A    between atoms: _367  and  _368
REMARK  140  A    between atoms: _377  and  _379
REMARK  141  A    between atoms: _379  and  _380
REMARK  142  A    between atoms: _382  and  _384
REMARK  143  A    between atoms: _384  and  _385
REMARK  144  A    between atoms: _384  and  _387
REMARK  145  A    between atoms: _387  and  _388
REMARK  146  A    between atoms: _390  and  _392
REMARK  147  A    between atoms: _392  and  _393
REMARK  148  A    between atoms: _392  and  _395
REMARK  149  A    between atoms: _395  and  _396
REMARK  150  A    between atoms: _402  and  _404
REMARK  151  A    between atoms: _404  and  _405
REMARK  152  A    between atoms: _407  and  _409
REMARK  153  A    between atoms: _409  and  _410
REMARK  154  A    between atoms: _409  and  _412
REMARK  155  A    between atoms: _412  and  _413
REMARK  156  A    between atoms: _416  and  _418
REMARK  157  A    between atoms: _418  and  _419
REMARK  158  A    between atoms: _418  and  _421
REMARK  159  A    between atoms: _421  and  _422
REMARK                            x       y       z     vdW  Elec       q    Type
REMARK                         _______ _______ _______ _____ _____    ______ ____
ROOT
ATOM      1  CA  LEU A   1      -9.886  18.781  29.517  0.00  0.00    +0.133 C 
ENDROOT
BRANCH   1   2
ATOM      2  N   LEU A   1     -11.281  19.176  29.650  0.00  0.00    -0.239 NA
ATOM      3  H   LEU A   1     -11.519  20.091  30.083  0.00  0.00    +0.142 HD
ENDBRANCH   1   2
BRANCH   1   4
ATOM      4  C   LEU A   1      -9.533  17.594  30.369  0.00  0.00    +0.224 C 
ATOM      5  O   LEU A   1      -8.532  16.914  30.113  0.00  0.00    -0.287 OA
ENDBRANCH   1   4
BRANCH   1   6
ATOM      6  CB  LEU A   1      -8.955  19.921  29.852  0.00  0.00    +0.025 C 
BRANCH   6   7
ATOM      7  CG  LEU A   1      -8.870  21.009  28.769  0.00  0.00    +0.002 C 
ATOM      8  CD2 LEU A   1      -8.186  22.280  29.359  0.00  0.00    +0.000 C 
ATOM      9  CD1 LEU A   1      -8.109  20.486  27.567  0.00  0.00    +0.000 C 
ENDBRANCH   6   7
ENDBRANCH   1   6
TORSDOF 4
REMARK  Name = ../refined-set-2016/2zxd/2zxd_pocket.pdb
REMARK  159 active torsions:
REMARK  status: ('A' for Active; 'I' for Inactive)
REMARK    1  A    between atoms: _1  and  _3
REMARK    2  A    between atoms: _3  and  _4
REMARK    3  A    between atoms: _3  and  _6
REMARK    4  A    between atoms: _6  and  _7
REMARK    5  A    between atoms: _13  and  _15
REMARK    6  A    between atoms: _15  and  _16
REMARK    7  A    between atoms: _15  and  _18
REMARK    8  A    between atoms: _18  and  _19
REMARK    9  A    between atoms: _24  and  _26
REMARK   10  A    between atoms: _26  and  _27
REMARK   11  A    between atoms: _26  and  _29
REMARK   12  A    between atoms: _29  and  _30
REMARK   13  A    between atoms: _35  and  _36
REMARK   14  A    between atoms: _38  and  _40
REMARK   15  A    between atoms: _40  and  _41
REMARK   16  A    between atoms: _40  and  _43
REMARK   17  A    between atoms: _43  and  _44
REMARK   18  A    between atoms: _47  and  _49
REMARK   19  A    between atoms: _49  and  _50
REMARK   20  A    between atoms: _49  and  _52
REMARK   21  A    between atoms: _52  and  _53
REMARK   22  A    between atoms: _63  and  _65
REMARK   23  A    between atoms: _65  and  _66
REMARK   24  A    between atoms: _65  and  _68
REMARK   25  A    between atoms: _68  and  _69
REMARK   26  A    between atoms: _75  and  _77
REMARK   27  A    between atoms: _77  and  _78
REMARK   28  A    between atoms: _77  and  _80
REMARK   29  A    between atoms: _80  and  _81
REMARK   30  A    between atoms: _86  and  _88
REMARK   31  A    between atoms: _88  and  _89
REMARK   32  A    between atoms: _88  and  _91
REMARK   33  A    between atoms: _91  and  _92
REMARK   34  A    between atoms: _97  and  _98
REMARK   35  A    between atoms: _100  and  _102
REMARK   36  A    between atoms: _102  and  _103
REMARK   37  A    between atoms: _106  and  _108
REMARK   38  A    between atoms: _108  and  _109
REMARK   39  A    between atoms: _108  and  _111
REMARK   40  A    between atoms: _111  and  _112
REMARK   41  A    between atoms: _112  and  _113
REMARK   42  A    between atoms: _116  and  _118
REMARK   43  A    between atoms: _118  and  _119
REMARK   44  A    between atoms: _118  and  _121
REMARK   45  A    between atoms: _121  and  _122
REMARK   46  A    between atoms: _132  and  _134
REMARK   47  A    between atoms: _134  and  _135
REMARK   48  A    between atoms: _134  and  _137
REMARK   49  A    between atoms: _137  and  _138
REMARK   50  A    between atoms: _143  and  _144
REMARK   51  A    between atoms: _146  and  _148
REMARK   52  A    between atoms: _148  and  _149
REMARK   53  A    between atoms: _148  and  _151
REMARK   54  A    between atoms: _151  and  _152
REMARK   55  A    between atoms: _155  and  _157
REMARK   56  A    between atoms: _157  and  _158
REMARK   57  A    between atoms: _157  and  _160
REMARK   58  A    between atoms: _160  and  _161
REMARK   59  A    between atoms: _166  and  _168
REMARK   60  A    between atoms: _168  and  _169
REMARK   61  A    between atoms: _168  and  _171
REMARK   62  A    between atoms: _171  and  _172
REMARK   63  A    between atoms: _177  and  _179
REMARK   64  A    between atoms: _179  and  _180
REMARK   65  A    between atoms: _179  and  _182
REMARK   66  A    between atoms: _182  and  _183
REMARK   67  A    between atoms: _186  and  _188
REMARK   68  A    between atoms: _188  and  _189
REMARK   69  A    between atoms: _188  and  _191
REMARK   70  A    between atoms: _191  and  _192
REMARK   71  A    between atoms: _197  and  _198
REMARK   72  A    between atoms: _200  and  _202
REMARK   73  A    between atoms: _202  and  _203
REMARK   74  A    between atoms: _202  and  _205
REMARK   75  A    between atoms: _205  and  _206
REMARK   76  A    between atoms: _208  and  _210
REMARK   77  A    between atoms: _210  and  _211
REMARK   78  A    between atoms: _210  and  _213
REMARK   79  A    between atoms: _213  and  _214
REMARK   80  A    between atoms: _217  and  _219
REMARK   81  A    between atoms: _219  and  _220
REMARK   82  A    between atoms: _219  and  _222
REMARK   83  A    between atoms: _222  and  _223
REMARK   84  A    between atoms: _233  and  _235
REMARK   85  A    between atoms: _235  and  _236
REMARK   86  A    between atoms: _235  and  _238
REMARK   87  A    between atoms: _238  and  _239
REMARK   88  A    between atoms: _242  and  _244
REMARK   89  A    between atoms: _244  and  _245
REMARK   90  A    between atoms: _244  and  _247
REMARK   91  A    between atoms: _247  and  _248
REMARK   92  A    between atoms: _258  and  _260
REMARK   93  A    between atoms: _260  and  _261
REMARK   94  A    between atoms: _260  and  _263
REMARK   95  A    between atoms: _263  and  _264
REMARK   96  A    between atoms: _269  and  _271
REMARK   97  A    between atoms: _271  and  _272
REMARK   98  A    between atoms: _271  and  _274
REMARK   99  A    between atoms: _274  and  _275
REMARK  100  A    between atoms: _278  and  _280
REMARK  101  A    between atoms: _280  and  _281
REMARK  102  A    between atoms: _280  and  _283
REMARK  103  A    between atoms: _283  and  _284
REMARK  104  A    between atoms: _284  and  _285
REMARK  105  A    between atoms: _287  and  _289
REMARK  106  A    between atoms: _289  and  _290
REMARK  107  A    between atoms: _289  and  _292
REMARK  108  A    between atoms: _292  and  _293
REMARK  109  A    between atoms: _298  and  _300
REMARK  110  A    between atoms: _300  and  _301
REMARK  111  A    between atoms: _300  and  _303
REMARK  112  A    between atoms: _303  and  _304
REMARK  113  A    between atoms: _304  and  _305
REMARK  114  A    between atoms: _305  and  _306
REMARK  115  A    between atoms: _315  and  _317
REMARK  116  A    between atoms: _317  and  _318
REMARK  117  A    between atoms: _317  and  _320
REMARK  118  A    between atoms: _320  and  _321
REMARK  119  A    between atoms: _324  and  _326
REMARK  120  A    between atoms: _326  and  _327
REMARK  121  A    between atoms: _330  and  _332
REMARK  122  A    between atoms: _332  and  _333
REMARK  123  A    between atoms: _332  and  _335
REMARK  124  A    between atoms: _335  and  _336
REMARK  125  A    between atoms: _336  and  _337
REMARK  126  A    between atoms: _340  and  _342
REMARK  127  A    between atoms: _342  and  _343
REMARK  128  A    between atoms: _342  and  _345
REMARK  129  A    between atoms: _345  and  _346
REMARK  130  A    between atoms: _351  and  _353
REMARK  131  A    between atoms: _353  and  _354
REMARK  132  A    between atoms: _353  and  _356
REMARK  133  A    between atoms: _356  and  _357
REMARK  134  A    between atoms: _360  and  _362
REMARK  135  A    between atoms: _362  and  _363
REMARK  136  A    between atoms: _362  and  _365
REMARK  137  A    between atoms: _365  and  _366
REMARK  138  A    between atoms: _366  and  _367
REMARK  139  A    between atoms: _367  and  _368
REMARK  140  A    between atoms: _377  and  _379
REMARK  141  A    between atoms: _379  and  _380
REMARK  142  A    between atoms: _382  and  _384
REMARK  143  A    between atoms: _384  and  _385
REMARK  144  A    between atoms: _384  and  _387
REMARK  145  A    between atoms: _387  and  _388
REMARK  146  A    between atoms: _390  and  _392
REMARK  147  A    between atoms: _392  and  _393
REMARK  148  A    between atoms: _392  and  _395
REMARK  149  A    between atoms: _395  and  _396
REMARK  150  A    between atoms: _402  and  _404
REMARK  151  A    between atoms: _404  and  _405
REMARK  152  A    between atoms: _407  and  _409
REMARK  153  A    between atoms: _409  and  _410
REMARK  154  A    between atoms: _409  and  _412
REMARK  155  A    between atoms: _412  and  _413
REMARK  156  A    between atoms: _416  and  _418
REMARK  157  A    between atoms: _418  and  _419
REMARK  158  A    between atoms: _418  and  _421
REMARK  159  A    between atoms: _421  and  _422
REMARK                            x       y       z     vdW  Elec       q    Type
REMARK                         _______ _______ _______ _____ _____    ______ ____
ROOT
ATOM      1  CA  ASN A   2       6.073  20.280  26.728  0.00  0.00    +0.158 C 
ENDROOT
BRANCH   1   3
ATOM      2  C   TRP A   1       7.774  21.878  26.043  0.00  0.00    +0.239 C 
ATOM      3  N   ASN A   2       7.325  20.979  26.930  0.00  0.00    -0.297 N 
ATOM      4  H   ASN A   2       7.888  20.779  27.781  0.00  0.00    +0.150 HD
ATOM      5  O   TRP A   1       7.179  22.164  24.965  0.00  0.00    -0.274 OA
BRANCH   2   6
ATOM      6  CA  TRP A   1       9.120  22.537  26.396  0.00  0.00    +0.149 C 
BRANCH   6   7
ATOM      7  N   TRP A   1      10.188  21.748  25.820  0.00  0.00    -0.238 NA
ATOM      8  H   TRP A   1      10.259  21.680  24.785  0.00  0.00    +0.142 HD
ENDBRANCH   6   7
BRANCH   6   9
ATOM      9  CB  TRP A   1       9.235  23.950  25.789  0.00  0.00    +0.054 C 
BRANCH   9  10
ATOM     10  CG  TRP A   1       8.733  25.152  26.634  0.00  0.00    -0.002 A 
ATOM     11  CD1 TRP A   1       9.514  26.114  27.233  0.00  0.00    +0.068 A 
ATOM     12  NE1 TRP A   1       8.708  27.038  27.888  0.00  0.00    -0.352 N 
ATOM     13  HE1 TRP A   1       9.046  27.865  28.420  0.00  0.00    +0.166 HD
ATOM     14  CE2 TRP A   1       7.394  26.681  27.719  0.00  0.00    +0.056 A 
ATOM     15  CZ2 TRP A   1       6.217  27.301  28.199  0.00  0.00    +0.017 A 
ATOM     16  CH2 TRP A   1       5.011  26.726  27.891  0.00  0.00    +0.001 A 
ATOM     17  CZ3 TRP A   1       4.933  25.540  27.108  0.00  0.00    +0.000 A 
ATOM     18  CE3 TRP A   1       6.115  24.917  26.619  0.00  0.00    +0.001 A 
ATOM     19  CD2 TRP A   1       7.369  25.500  26.934  0.00  0.00    +0.013 A 
ENDBRANCH   9  10
ENDBRANCH   6   9
ENDBRANCH   2   6
ENDBRANCH   1   3
BRANCH   1  20
ATOM     20  C   ASN A   2       4.899  21.203  27.121  0.00  0.00    +0.241 C 
ATOM     21  O   ASN A   2       5.067  22.159  27.895  0.00  0.00    -0.273 OA
ATOM     22  N   ASP A   3       3.710  20.903  26.624  0.00  0.00    -0.297 N 
ATOM     23  H   ASP A   3       3.600  20.110  25.960  0.00  0.00    +0.150 HD
BRANCH  22  24
ATOM     24  CA  ASP A   3       2.549  21.707  27.024  0.00  0.00    +0.160 C 
BRANCH  24  25
ATOM     25  C   ASP A   3       1.390  20.744  27.262  0.00  0.00    +0.241 C 
ATOM     26  N   MET A   4       0.508  21.174  28.172  0.00  0.00    -0.298 N 
ATOM     27  H   MET A   4       0.734  22.061  28.666  0.00  0.00    +0.150 HD
ATOM     28  O   ASP A   3       1.323  19.647  26.620  0.00  0.00    -0.273 OA
BRANCH  26  29
ATOM     29  CA  MET A   4      -0.743  20.514  28.536  0.00  0.00    +0.138 C 
BRANCH  29  30
ATOM     30  C   MET A   4      -0.633  19.166  29.251  0.00  0.00    +0.227 C 
ATOM     31  O   MET A   4      -1.584  18.357  29.224  0.00  0.00    -0.286 OA
ENDBRANCH  29  30
BRANCH  29  32
ATOM     32  CB  MET A   4      -1.659  20.411  27.274  0.00  0.00    +0.039 C 
BRANCH  32  33
ATOM     33  CG  MET A   4      -1.947  21.798  26.623  0.00  0.00    +0.060 C 
BRANCH  33  34
ATOM     34  SD  MET A   4      -2.796  22.952  27.814  0.00  0.00    -0.139 S 
ATOM     35  CE  MET A   4      -4.353  22.202  27.919  0.00  0.00    +0.069 C 
ENDBRANCH  33  34
ENDBRANCH  32  33
ENDBRANCH  29  32
ENDBRANCH  26  29
ENDBRANCH  24  25
BRANCH  24  36
ATOM     36  CB  ASP A   3       2.144  22.688  25.899  0.00  0.00    +0.143 C 
BRANCH  36  37
ATOM     37  CG  ASP A   3       1.298  23.862  26.395  0.00  0.00    +0.367 C 
ATOM     38  OD2 ASP A   3       1.108  24.005  27.627  0.00  0.00    -0.246 OA
ATOM     39  OD1 ASP A   3       0.825  24.668  25.546  0.00  0.00    -0.246 OA
ENDBRANCH  36  37
ENDBRANCH  24  36
ENDBRANCH  22  24
ENDBRANCH   1  20
BRANCH   1  40
ATOM     40  CB  ASN A   2       6.000  19.004  27.593  0.00  0.00    +0.114 C 
BRANCH  40  41
ATOM     41  CG  ASN A   2       4.764  18.218  27.297  0.00  0.00    +0.222 C 
ATOM     42  ND2 ASN A   2       3.893  17.974  28.310  0.00  0.00    -0.329 N 
ATOM     43 HD21 ASN A   2       4.118  18.287  29.276  0.00  0.00    +0.145 HD
ATOM     44 HD22 ASN A   2       3.001  17.474  28.120  0.00  0.00    +0.145 HD
ATOM     45  OD1 ASN A   2       4.556  17.876  26.148  0.00  0.00    -0.275 OA
ENDBRANCH  40  41
ENDBRANCH   1  40
TORSDOF 17
REMARK  Name = ../refined-set-2016/2zxd/2zxd_pocket.pdb
REMARK  159 active torsions:
REMARK  status: ('A' for Active; 'I' for Inactive)
REMARK    1  A    between atoms: _1  and  _3
REMARK    2  A    between atoms: _3  and  _4
REMARK    3  A    between atoms: _3  and  _6
REMARK    4  A    between atoms: _6  and  _7
REMARK    5  A    between atoms: _13  and  _15
REMARK    6  A    between atoms: _15  and  _16
REMARK    7  A    between atoms: _15  and  _18
REMARK    8  A    between atoms: _18  and  _19
REMARK    9  A    between atoms: _24  and  _26
REMARK   10  A    between atoms: _26  and  _27
REMARK   11  A    between atoms: _26  and  _29
REMARK   12  A    between atoms: _29  and  _30
REMARK   13  A    between atoms: _35  and  _36
REMARK   14  A    between atoms: _38  and  _40
REMARK   15  A    between atoms: _40  and  _41
REMARK   16  A    between atoms: _40  and  _43
REMARK   17  A    between atoms: _43  and  _44
REMARK   18  A    between atoms: _47  and  _49
REMARK   19  A    between atoms: _49  and  _50
REMARK   20  A    between atoms: _49  and  _52
REMARK   21  A    between atoms: _52  and  _53
REMARK   22  A    between atoms: _63  and  _65
REMARK   23  A    between atoms: _65  and  _66
REMARK   24  A    between atoms: _65  and  _68
REMARK   25  A    between atoms: _68  and  _69
REMARK   26  A    between atoms: _75  and  _77
REMARK   27  A    between atoms: _77  and  _78
REMARK   28  A    between atoms: _77  and  _80
REMARK   29  A    between atoms: _80  and  _81
REMARK   30  A    between atoms: _86  and  _88
REMARK   31  A    between atoms: _88  and  _89
REMARK   32  A    between atoms: _88  and  _91
REMARK   33  A    between atoms: _91  and  _92
REMARK   34  A    between atoms: _97  and  _98
REMARK   35  A    between atoms: _100  and  _102
REMARK   36  A    between atoms: _102  and  _103
REMARK   37  A    between atoms: _106  and  _108
REMARK   38  A    between atoms: _108  and  _109
REMARK   39  A    between atoms: _108  and  _111
REMARK   40  A    between atoms: _111  and  _112
REMARK   41  A    between atoms: _112  and  _113
REMARK   42  A    between atoms: _116  and  _118
REMARK   43  A    between atoms: _118  and  _119
REMARK   44  A    between atoms: _118  and  _121
REMARK   45  A    between atoms: _121  and  _122
REMARK   46  A    between atoms: _132  and  _134
REMARK   47  A    between atoms: _134  and  _135
REMARK   48  A    between atoms: _134  and  _137
REMARK   49  A    between atoms: _137  and  _138
REMARK   50  A    between atoms: _143  and  _144
REMARK   51  A    between atoms: _146  and  _148
REMARK   52  A    between atoms: _148  and  _149
REMARK   53  A    between atoms: _148  and  _151
REMARK   54  A    between atoms: _151  and  _152
REMARK   55  A    between atoms: _155  and  _157
REMARK   56  A    between atoms: _157  and  _158
REMARK   57  A    between atoms: _157  and  _160
REMARK   58  A    between atoms: _160  and  _161
REMARK   59  A    between atoms: _166  and  _168
REMARK   60  A    between atoms: _168  and  _169
REMARK   61  A    between atoms: _168  and  _171
REMARK   62  A    between atoms: _171  and  _172
REMARK   63  A    between atoms: _177  and  _179
REMARK   64  A    between atoms: _179  and  _180
REMARK   65  A    between atoms: _179  and  _182
REMARK   66  A    between atoms: _182  and  _183
REMARK   67  A    between atoms: _186  and  _188
REMARK   68  A    between atoms: _188  and  _189
REMARK   69  A    between atoms: _188  and  _191
REMARK   70  A    between atoms: _191  and  _192
REMARK   71  A    between atoms: _197  and  _198
REMARK   72  A    between atoms: _200  and  _202
REMARK   73  A    between atoms: _202  and  _203
REMARK   74  A    between atoms: _202  and  _205
REMARK   75  A    between atoms: _205  and  _206
REMARK   76  A    between atoms: _208  and  _210
REMARK   77  A    between atoms: _210  and  _211
REMARK   78  A    between atoms: _210  and  _213
REMARK   79  A    between atoms: _213  and  _214
REMARK   80  A    between atoms: _217  and  _219
REMARK   81  A    between atoms: _219  and  _220
REMARK   82  A    between atoms: _219  and  _222
REMARK   83  A    between atoms: _222  and  _223
REMARK   84  A    between atoms: _233  and  _235
REMARK   85  A    between atoms: _235  and  _236
REMARK   86  A    between atoms: _235  and  _238
REMARK   87  A    between atoms: _238  and  _239
REMARK   88  A    between atoms: _242  and  _244
REMARK   89  A    between atoms: _244  and  _245
REMARK   90  A    between atoms: _244  and  _247
REMARK   91  A    between atoms: _247  and  _248
REMARK   92  A    between atoms: _258  and  _260
REMARK   93  A    between atoms: _260  and  _261
REMARK   94  A    between atoms: _260  and  _263
REMARK   95  A    between atoms: _263  and  _264
REMARK   96  A    between atoms: _269  and  _271
REMARK   97  A    between atoms: _271  and  _272
REMARK   98  A    between atoms: _271  and  _274
REMARK   99  A    between atoms: _274  and  _275
REMARK  100  A    between atoms: _278  and  _280
REMARK  101  A    between atoms: _280  and  _281
REMARK  102  A    between atoms: _280  and  _283
REMARK  103  A    between atoms: _283  and  _284
REMARK  104  A    between atoms: _284  and  _285
REMARK  105  A    between atoms: _287  and  _289
REMARK  106  A    between atoms: _289  and  _290
REMARK  107  A    between atoms: _289  and  _292
REMARK  108  A    between atoms: _292  and  _293
REMARK  109  A    between atoms: _298  and  _300
REMARK  110  A    between atoms: _300  and  _301
REMARK  111  A    between atoms: _300  and  _303
REMARK  112  A    between atoms: _303  and  _304
REMARK  113  A    between atoms: _304  and  _305
REMARK  114  A    between atoms: _305  and  _306
REMARK  115  A    between atoms: _315  and  _317
REMARK  116  A    between atoms: _317  and  _318
REMARK  117  A    between atoms: _317  and  _320
REMARK  118  A    between atoms: _320  and  _321
REMARK  119  A    between atoms: _324  and  _326
REMARK  120  A    between atoms: _326  and  _327
REMARK  121  A    between atoms: _330  and  _332
REMARK  122  A    between atoms: _332  and  _333
REMARK  123  A    between atoms: _332  and  _335
REMARK  124  A    between atoms: _335  and  _336
REMARK  125  A    between atoms: _336  and  _337
REMARK  126  A    between atoms: _340  and  _342
REMARK  127  A    between atoms: _342  and  _343
REMARK  128  A    between atoms: _342  and  _345
REMARK  129  A    between atoms: _345  and  _346
REMARK  130  A    between atoms: _351  and  _353
REMARK  131  A    between atoms: _353  and  _354
REMARK  132  A    between atoms: _353  and  _356
REMARK  133  A    between atoms: _356  and  _357
REMARK  134  A    between atoms: _360  and  _362
REMARK  135  A    between atoms: _362  and  _363
REMARK  136  A    between atoms: _362  and  _365
REMARK  137  A    between atoms: _365  and  _366
REMARK  138  A    between atoms: _366  and  _367
REMARK  139  A    between atoms: _367  and  _368
REMARK  140  A    between atoms: _377  and  _379
REMARK  141  A    between atoms: _379  and  _380
REMARK  142  A    between atoms: _382  and  _384
REMARK  143  A    between atoms: _384  and  _385
REMARK  144  A    between atoms: _384  and  _387
REMARK  145  A    between atoms: _387  and  _388
REMARK  146  A    between atoms: _390  and  _392
REMARK  147  A    between atoms: _392  and  _393
REMARK  148  A    between atoms: _392  and  _395
REMARK  149  A    between atoms: _395  and  _396
REMARK  150  A    between atoms: _402  and  _404
REMARK  151  A    between atoms: _404  and  _405
REMARK  152  A    between atoms: _407  and  _409
REMARK  153  A    between atoms: _409  and  _410
REMARK  154  A    between atoms: _409  and  _412
REMARK  155  A    between atoms: _412  and  _413
REMARK  156  A    between atoms: _416  and  _418
REMARK  157  A    between atoms: _418  and  _419
REMARK  158  A    between atoms: _418  and  _421
REMARK  159  A    between atoms: _421  and  _422
REMARK                            x       y       z     vdW  Elec       q    Type
REMARK                         _______ _______ _______ _____ _____    ______ ____
ROOT
ATOM      1  CB  ASN A   1       9.216  23.594  30.576  0.00  0.00    +0.110 C 
ENDROOT
BRANCH   1   2
ATOM      2  CG  ASN A   1       8.107  22.779  29.952  0.00  0.00    +0.221 C 
ATOM      3  OD1 ASN A   1       8.164  21.536  29.964  0.00  0.00    -0.275 OA
ATOM      4  ND2 ASN A   1       7.084  23.462  29.417  0.00  0.00    -0.329 N 
ATOM      5 HD21 ASN A   1       7.087  24.502  29.434  0.00  0.00    +0.145 HD
ATOM      6 HD22 ASN A   1       6.287  22.952  28.985  0.00  0.00    +0.145 HD
ENDBRANCH   1   2
BRANCH   1   7
ATOM      7  CA  ASN A   1      10.115  22.760  31.481  0.00  0.00    +0.142 C 
BRANCH   7   8
ATOM      8  N   ASN A   1      10.980  21.903  30.718  0.00  0.00    -0.239 NA
ATOM      9  H   ASN A   1      10.674  21.530  29.797  0.00  0.00    +0.142 HD
ENDBRANCH   7   8
BRANCH   7  10
ATOM     10  C   ASN A   1       9.317  21.969  32.541  0.00  0.00    +0.225 C 
ATOM     11  O   ASN A   1       9.674  20.807  32.864  0.00  0.00    -0.287 OA
ENDBRANCH   7  10
ENDBRANCH   1   7
TORSDOF 4
REMARK  Name = ../refined-set-2016/2zxd/2zxd_pocket.pdb
REMARK  159 active torsions:
REMARK  status: ('A' for Active; 'I' for Inactive)
REMARK    1  A    between atoms: _1  and  _3
REMARK    2  A    between atoms: _3  and  _4
REMARK    3  A    between atoms: _3  and  _6
REMARK    4  A    between atoms: _6  and  _7
REMARK    5  A    between atoms: _13  and  _15
REMARK    6  A    between atoms: _15  and  _16
REMARK    7  A    between atoms: _15  and  _18
REMARK    8  A    between atoms: _18  and  _19
REMARK    9  A    between atoms: _24  and  _26
REMARK   10  A    between atoms: _26  and  _27
REMARK   11  A    between atoms: _26  and  _29
REMARK   12  A    between atoms: _29  and  _30
REMARK   13  A    between atoms: _35  and  _36
REMARK   14  A    between atoms: _38  and  _40
REMARK   15  A    between atoms: _40  and  _41
REMARK   16  A    between atoms: _40  and  _43
REMARK   17  A    between atoms: _43  and  _44
REMARK   18  A    between atoms: _47  and  _49
REMARK   19  A    between atoms: _49  and  _50
REMARK   20  A    between atoms: _49  and  _52
REMARK   21  A    between atoms: _52  and  _53
REMARK   22  A    between atoms: _63  and  _65
REMARK   23  A    between atoms: _65  and  _66
REMARK   24  A    between atoms: _65  and  _68
REMARK   25  A    between atoms: _68  and  _69
REMARK   26  A    between atoms: _75  and  _77
REMARK   27  A    between atoms: _77  and  _78
REMARK   28  A    between atoms: _77  and  _80
REMARK   29  A    between atoms: _80  and  _81
REMARK   30  A    between atoms: _86  and  _88
REMARK   31  A    between atoms: _88  and  _89
REMARK   32  A    between atoms: _88  and  _91
REMARK   33  A    between atoms: _91  and  _92
REMARK   34  A    between atoms: _97  and  _98
REMARK   35  A    between atoms: _100  and  _102
REMARK   36  A    between atoms: _102  and  _103
REMARK   37  A    between atoms: _106  and  _108
REMARK   38  A    between atoms: _108  and  _109
REMARK   39  A    between atoms: _108  and  _111
REMARK   40  A    between atoms: _111  and  _112
REMARK   41  A    between atoms: _112  and  _113
REMARK   42  A    between atoms: _116  and  _118
REMARK   43  A    between atoms: _118  and  _119
REMARK   44  A    between atoms: _118  and  _121
REMARK   45  A    between atoms: _121  and  _122
REMARK   46  A    between atoms: _132  and  _134
REMARK   47  A    between atoms: _134  and  _135
REMARK   48  A    between atoms: _134  and  _137
REMARK   49  A    between atoms: _137  and  _138
REMARK   50  A    between atoms: _143  and  _144
REMARK   51  A    between atoms: _146  and  _148
REMARK   52  A    between atoms: _148  and  _149
REMARK   53  A    between atoms: _148  and  _151
REMARK   54  A    between atoms: _151  and  _152
REMARK   55  A    between atoms: _155  and  _157
REMARK   56  A    between atoms: _157  and  _158
REMARK   57  A    between atoms: _157  and  _160
REMARK   58  A    between atoms: _160  and  _161
REMARK   59  A    between atoms: _166  and  _168
REMARK   60  A    between atoms: _168  and  _169
REMARK   61  A    between atoms: _168  and  _171
REMARK   62  A    between atoms: _171  and  _172
REMARK   63  A    between atoms: _177  and  _179
REMARK   64  A    between atoms: _179  and  _180
REMARK   65  A    between atoms: _179  and  _182
REMARK   66  A    between atoms: _182  and  _183
REMARK   67  A    between atoms: _186  and  _188
REMARK   68  A    between atoms: _188  and  _189
REMARK   69  A    between atoms: _188  and  _191
REMARK   70  A    between atoms: _191  and  _192
REMARK   71  A    between atoms: _197  and  _198
REMARK   72  A    between atoms: _200  and  _202
REMARK   73  A    between atoms: _202  and  _203
REMARK   74  A    between atoms: _202  and  _205
REMARK   75  A    between atoms: _205  and  _206
REMARK   76  A    between atoms: _208  and  _210
REMARK   77  A    between atoms: _210  and  _211
REMARK   78  A    between atoms: _210  and  _213
REMARK   79  A    between atoms: _213  and  _214
REMARK   80  A    between atoms: _217  and  _219
REMARK   81  A    between atoms: _219  and  _220
REMARK   82  A    between atoms: _219  and  _222
REMARK   83  A    between atoms: _222  and  _223
REMARK   84  A    between atoms: _233  and  _235
REMARK   85  A    between atoms: _235  and  _236
REMARK   86  A    between atoms: _235  and  _238
REMARK   87  A    between atoms: _238  and  _239
REMARK   88  A    between atoms: _242  and  _244
REMARK   89  A    between atoms: _244  and  _245
REMARK   90  A    between atoms: _244  and  _247
REMARK   91  A    between atoms: _247  and  _248
REMARK   92  A    between atoms: _258  and  _260
REMARK   93  A    between atoms: _260  and  _261
REMARK   94  A    between atoms: _260  and  _263
REMARK   95  A    between atoms: _263  and  _264
REMARK   96  A    between atoms: _269  and  _271
REMARK   97  A    between atoms: _271  and  _272
REMARK   98  A    between atoms: _271  and  _274
REMARK   99  A    between atoms: _274  and  _275
REMARK  100  A    between atoms: _278  and  _280
REMARK  101  A    between atoms: _280  and  _281
REMARK  102  A    between atoms: _280  and  _283
REMARK  103  A    between atoms: _283  and  _284
REMARK  104  A    between atoms: _284  and  _285
REMARK  105  A    between atoms: _287  and  _289
REMARK  106  A    between atoms: _289  and  _290
REMARK  107  A    between atoms: _289  and  _292
REMARK  108  A    between atoms: _292  and  _293
REMARK  109  A    between atoms: _298  and  _300
REMARK  110  A    between atoms: _300  and  _301
REMARK  111  A    between atoms: _300  and  _303
REMARK  112  A    between atoms: _303  and  _304
REMARK  113  A    between atoms: _304  and  _305
REMARK  114  A    between atoms: _305  and  _306
REMARK  115  A    between atoms: _315  and  _317
REMARK  116  A    between atoms: _317  and  _318
REMARK  117  A    between atoms: _317  and  _320
REMARK  118  A    between atoms: _320  and  _321
REMARK  119  A    between atoms: _324  and  _326
REMARK  120  A    between atoms: _326  and  _327
REMARK  121  A    between atoms: _330  and  _332
REMARK  122  A    between atoms: _332  and  _333
REMARK  123  A    between atoms: _332  and  _335
REMARK  124  A    between atoms: _335  and  _336
REMARK  125  A    between atoms: _336  and  _337
REMARK  126  A    between atoms: _340  and  _342
REMARK  127  A    between atoms: _342  and  _343
REMARK  128  A    between atoms: _342  and  _345
REMARK  129  A    between atoms: _345  and  _346
REMARK  130  A    between atoms: _351  and  _353
REMARK  131  A    between atoms: _353  and  _354
REMARK  132  A    between atoms: _353  and  _356
REMARK  133  A    between atoms: _356  and  _357
REMARK  134  A    between atoms: _360  and  _362
REMARK  135  A    between atoms: _362  and  _363
REMARK  136  A    between atoms: _362  and  _365
REMARK  137  A    between atoms: _365  and  _366
REMARK  138  A    between atoms: _366  and  _367
REMARK  139  A    between atoms: _367  and  _368
REMARK  140  A    between atoms: _377  and  _379
REMARK  141  A    between atoms: _379  and  _380
REMARK  142  A    between atoms: _382  and  _384
REMARK  143  A    between atoms: _384  and  _385
REMARK  144  A    between atoms: _384  and  _387
REMARK  145  A    between atoms: _387  and  _388
REMARK  146  A    between atoms: _390  and  _392
REMARK  147  A    between atoms: _392  and  _393
REMARK  148  A    between atoms: _392  and  _395
REMARK  149  A    between atoms: _395  and  _396
REMARK  150  A    between atoms: _402  and  _404
REMARK  151  A    between atoms: _404  and  _405
REMARK  152  A    between atoms: _407  and  _409
REMARK  153  A    between atoms: _409  and  _410
REMARK  154  A    between atoms: _409  and  _412
REMARK  155  A    between atoms: _412  and  _413
REMARK  156  A    between atoms: _416  and  _418
REMARK  157  A    between atoms: _418  and  _419
REMARK  158  A    between atoms: _418  and  _421
REMARK  159  A    between atoms: _421  and  _422
REMARK                            x       y       z     vdW  Elec       q    Type
REMARK                         _______ _______ _______ _____ _____    ______ ____
ROOT
ATOM      1  NE  ARG A   1       3.401  25.571  30.895  0.00  0.00    -0.265 N 
ATOM      2  HE  ARG A   1       4.046  25.858  31.659  0.00  0.00    +0.259 HD
ATOM      3  CZ  ARG A   1       2.492  26.444  30.481  0.00  0.00    +0.342 C 
ATOM      4  NH2 ARG A   1       2.433  27.637  31.062  0.00  0.00    -0.292 N 
ATOM      5 HH21 ARG A   1       3.093  27.875  31.829  0.00  0.00    +0.255 HD
ATOM      6 HH22 ARG A   1       1.726  28.333  30.750  0.00  0.00    +0.255 HD
ATOM      7  NH1 ARG A   1       1.670  26.132  29.455  0.00  0.00    -0.292 N 
ATOM      8 HH11 ARG A   1       0.958  26.818  29.132  0.00  0.00    +0.255 HD
ATOM      9 HH12 ARG A   1       1.749  25.206  28.988  0.00  0.00    +0.255 HD
ENDROOT
BRANCH   1  10
ATOM     10  CD  ARG A   1       3.544  24.241  30.342  0.00  0.00    +0.174 C 
BRANCH  10  11
ATOM     11  CG  ARG A   1       3.989  23.308  31.473  0.00  0.00    +0.045 C 
BRANCH  11  12
ATOM     12  CB  ARG A   1       4.033  21.806  31.030  0.00  0.00    +0.029 C 
BRANCH  12  13
ATOM     13  CA  ARG A   1       4.432  20.872  32.198  0.00  0.00    +0.133 C 
BRANCH  13  14
ATOM     14  N   ARG A   1       5.792  21.201  32.593  0.00  0.00    -0.239 NA
ATOM     15  H   ARG A   1       6.562  21.141  31.897  0.00  0.00    +0.142 HD
ENDBRANCH  13  14
BRANCH  13  16
ATOM     16  C   ARG A   1       4.260  19.413  31.809  0.00  0.00    +0.224 C 
ATOM     17  O   ARG A   1       3.478  19.088  30.913  0.00  0.00    -0.287 OA
ENDBRANCH  13  16
ENDBRANCH  12  13
ENDBRANCH  11  12
ENDBRANCH  10  11
ENDBRANCH   1  10
TORSDOF 6
REMARK  Name = ../refined-set-2016/2zxd/2zxd_pocket.pdb
REMARK  159 active torsions:
REMARK  status: ('A' for Active; 'I' for Inactive)
REMARK    1  A    between atoms: _1  and  _3
REMARK    2  A    between atoms: _3  and  _4
REMARK    3  A    between atoms: _3  and  _6
REMARK    4  A    between atoms: _6  and  _7
REMARK    5  A    between atoms: _13  and  _15
REMARK    6  A    between atoms: _15  and  _16
REMARK    7  A    between atoms: _15  and  _18
REMARK    8  A    between atoms: _18  and  _19
REMARK    9  A    between atoms: _24  and  _26
REMARK   10  A    between atoms: _26  and  _27
REMARK   11  A    between atoms: _26  and  _29
REMARK   12  A    between atoms: _29  and  _30
REMARK   13  A    between atoms: _35  and  _36
REMARK   14  A    between atoms: _38  and  _40
REMARK   15  A    between atoms: _40  and  _41
REMARK   16  A    between atoms: _40  and  _43
REMARK   17  A    between atoms: _43  and  _44
REMARK   18  A    between atoms: _47  and  _49
REMARK   19  A    between atoms: _49  and  _50
REMARK   20  A    between atoms: _49  and  _52
REMARK   21  A    between atoms: _52  and  _53
REMARK   22  A    between atoms: _63  and  _65
REMARK   23  A    between atoms: _65  and  _66
REMARK   24  A    between atoms: _65  and  _68
REMARK   25  A    between atoms: _68  and  _69
REMARK   26  A    between atoms: _75  and  _77
REMARK   27  A    between atoms: _77  and  _78
REMARK   28  A    between atoms: _77  and  _80
REMARK   29  A    between atoms: _80  and  _81
REMARK   30  A    between atoms: _86  and  _88
REMARK   31  A    between atoms: _88  and  _89
REMARK   32  A    between atoms: _88  and  _91
REMARK   33  A    between atoms: _91  and  _92
REMARK   34  A    between atoms: _97  and  _98
REMARK   35  A    between atoms: _100  and  _102
REMARK   36  A    between atoms: _102  and  _103
REMARK   37  A    between atoms: _106  and  _108
REMARK   38  A    between atoms: _108  and  _109
REMARK   39  A    between atoms: _108  and  _111
REMARK   40  A    between atoms: _111  and  _112
REMARK   41  A    between atoms: _112  and  _113
REMARK   42  A    between atoms: _116  and  _118
REMARK   43  A    between atoms: _118  and  _119
REMARK   44  A    between atoms: _118  and  _121
REMARK   45  A    between atoms: _121  and  _122
REMARK   46  A    between atoms: _132  and  _134
REMARK   47  A    between atoms: _134  and  _135
REMARK   48  A    between atoms: _134  and  _137
REMARK   49  A    between atoms: _137  and  _138
REMARK   50  A    between atoms: _143  and  _144
REMARK   51  A    between atoms: _146  and  _148
REMARK   52  A    between atoms: _148  and  _149
REMARK   53  A    between atoms: _148  and  _151
REMARK   54  A    between atoms: _151  and  _152
REMARK   55  A    between atoms: _155  and  _157
REMARK   56  A    between atoms: _157  and  _158
REMARK   57  A    between atoms: _157  and  _160
REMARK   58  A    between atoms: _160  and  _161
REMARK   59  A    between atoms: _166  and  _168
REMARK   60  A    between atoms: _168  and  _169
REMARK   61  A    between atoms: _168  and  _171
REMARK   62  A    between atoms: _171  and  _172
REMARK   63  A    between atoms: _177  and  _179
REMARK   64  A    between atoms: _179  and  _180
REMARK   65  A    between atoms: _179  and  _182
REMARK   66  A    between atoms: _182  and  _183
REMARK   67  A    between atoms: _186  and  _188
REMARK   68  A    between atoms: _188  and  _189
REMARK   69  A    between atoms: _188  and  _191
REMARK   70  A    between atoms: _191  and  _192
REMARK   71  A    between atoms: _197  and  _198
REMARK   72  A    between atoms: _200  and  _202
REMARK   73  A    between atoms: _202  and  _203
REMARK   74  A    between atoms: _202  and  _205
REMARK   75  A    between atoms: _205  and  _206
REMARK   76  A    between atoms: _208  and  _210
REMARK   77  A    between atoms: _210  and  _211
REMARK   78  A    between atoms: _210  and  _213
REMARK   79  A    between atoms: _213  and  _214
REMARK   80  A    between atoms: _217  and  _219
REMARK   81  A    between atoms: _219  and  _220
REMARK   82  A    between atoms: _219  and  _222
REMARK   83  A    between atoms: _222  and  _223
REMARK   84  A    between atoms: _233  and  _235
REMARK   85  A    between atoms: _235  and  _236
REMARK   86  A    between atoms: _235  and  _238
REMARK   87  A    between atoms: _238  and  _239
REMARK   88  A    between atoms: _242  and  _244
REMARK   89  A    between atoms: _244  and  _245
REMARK   90  A    between atoms: _244  and  _247
REMARK   91  A    between atoms: _247  and  _248
REMARK   92  A    between atoms: _258  and  _260
REMARK   93  A    between atoms: _260  and  _261
REMARK   94  A    between atoms: _260  and  _263
REMARK   95  A    between atoms: _263  and  _264
REMARK   96  A    between atoms: _269  and  _271
REMARK   97  A    between atoms: _271  and  _272
REMARK   98  A    between atoms: _271  and  _274
REMARK   99  A    between atoms: _274  and  _275
REMARK  100  A    between atoms: _278  and  _280
REMARK  101  A    between atoms: _280  and  _281
REMARK  102  A    between atoms: _280  and  _283
REMARK  103  A    between atoms: _283  and  _284
REMARK  104  A    between atoms: _284  and  _285
REMARK  105  A    between atoms: _287  and  _289
REMARK  106  A    between atoms: _289  and  _290
REMARK  107  A    between atoms: _289  and  _292
REMARK  108  A    between atoms: _292  and  _293
REMARK  109  A    between atoms: _298  and  _300
REMARK  110  A    between atoms: _300  and  _301
REMARK  111  A    between atoms: _300  and  _303
REMARK  112  A    between atoms: _303  and  _304
REMARK  113  A    between atoms: _304  and  _305
REMARK  114  A    between atoms: _305  and  _306
REMARK  115  A    between atoms: _315  and  _317
REMARK  116  A    between atoms: _317  and  _318
REMARK  117  A    between atoms: _317  and  _320
REMARK  118  A    between atoms: _320  and  _321
REMARK  119  A    between atoms: _324  and  _326
REMARK  120  A    between atoms: _326  and  _327
REMARK  121  A    between atoms: _330  and  _332
REMARK  122  A    between atoms: _332  and  _333
REMARK  123  A    between atoms: _332  and  _335
REMARK  124  A    between atoms: _335  and  _336
REMARK  125  A    between atoms: _336  and  _337
REMARK  126  A    between atoms: _340  and  _342
REMARK  127  A    between atoms: _342  and  _343
REMARK  128  A    between atoms: _342  and  _345
REMARK  129  A    between atoms: _345  and  _346
REMARK  130  A    between atoms: _351  and  _353
REMARK  131  A    between atoms: _353  and  _354
REMARK  132  A    between atoms: _353  and  _356
REMARK  133  A    between atoms: _356  and  _357
REMARK  134  A    between atoms: _360  and  _362
REMARK  135  A    between atoms: _362  and  _363
REMARK  136  A    between atoms: _362  and  _365
REMARK  137  A    between atoms: _365  and  _366
REMARK  138  A    between atoms: _366  and  _367
REMARK  139  A    between atoms: _367  and  _368
REMARK  140  A    between atoms: _377  and  _379
REMARK  141  A    between atoms: _379  and  _380
REMARK  142  A    between atoms: _382  and  _384
REMARK  143  A    between atoms: _384  and  _385
REMARK  144  A    between atoms: _384  and  _387
REMARK  145  A    between atoms: _387  and  _388
REMARK  146  A    between atoms: _390  and  _392
REMARK  147  A    between atoms: _392  and  _393
REMARK  148  A    between atoms: _392  and  _395
REMARK  149  A    between atoms: _395  and  _396
REMARK  150  A    between atoms: _402  and  _404
REMARK  151  A    between atoms: _404  and  _405
REMARK  152  A    between atoms: _407  and  _409
REMARK  153  A    between atoms: _409  and  _410
REMARK  154  A    between atoms: _409  and  _412
REMARK  155  A    between atoms: _412  and  _413
REMARK  156  A    between atoms: _416  and  _418
REMARK  157  A    between atoms: _418  and  _419
REMARK  158  A    between atoms: _418  and  _421
REMARK  159  A    between atoms: _421  and  _422
REMARK                            x       y       z     vdW  Elec       q    Type
REMARK                         _______ _______ _______ _____ _____    ______ ____
ROOT
ATOM      1  CA  ALA A   2       4.186  31.118  34.496  0.00  0.00    +0.149 C 
ATOM      2  CB  ALA A   2       4.784  32.059  35.649  0.00  0.00    +0.031 C 
ENDROOT
BRANCH   1   5
ATOM      3  C   THR A   1       5.461  29.066  34.360  0.00  0.00    +0.241 C 
ATOM      4  O   THR A   1       4.791  28.512  35.234  0.00  0.00    -0.274 OA
ATOM      5  N   ALA A   2       5.242  30.298  33.932  0.00  0.00    -0.297 N 
ATOM      6  H   ALA A   2       5.839  30.687  33.175  0.00  0.00    +0.150 HD
BRANCH   3   7
ATOM      7  CA  THR A   1       6.625  28.355  33.729  0.00  0.00    +0.172 C 
BRANCH   7   8
ATOM      8  N   THR A   1       7.159  27.448  34.722  0.00  0.00    -0.236 NA
ATOM      9  H   THR A   1       6.539  26.749  35.179  0.00  0.00    +0.142 HD
ENDBRANCH   7   8
BRANCH   7  10
ATOM     10  CB  THR A   1       6.195  27.595  32.443  0.00  0.00    +0.135 C 
ATOM     11  CG2 THR A   1       7.430  26.995  31.777  0.00  0.00    +0.034 C 
BRANCH  10  12
ATOM     12  OG1 THR A   1       5.265  26.554  32.782  0.00  0.00    -0.383 OA
ATOM     13  HG1 THR A   1       5.695  25.920  33.409  0.00  0.00    +0.210 HD
ENDBRANCH  10  12
ENDBRANCH   7  10
ENDBRANCH   3   7
ENDBRANCH   1   5
BRANCH   1  14
ATOM     14  C   ALA A   2       3.599  31.967  33.383  0.00  0.00    +0.241 C 
ATOM     15  N   GLU A   3       2.353  32.389  33.594  0.00  0.00    -0.298 N 
ATOM     16  H   GLU A   3       1.886  32.071  34.467  0.00  0.00    +0.150 HD
ATOM     17  O   ALA A   2       4.274  32.215  32.374  0.00  0.00    -0.273 OA
BRANCH  15  18
ATOM     18  CA  GLU A   3       1.586  33.258  32.709  0.00  0.00    +0.137 C 
BRANCH  18  19
ATOM     19  C   GLU A   3       0.884  34.228  33.646  0.00  0.00    +0.227 C 
ATOM     20  O   GLU A   3       0.880  34.008  34.844  0.00  0.00    -0.286 OA
ENDBRANCH  18  19
BRANCH  18  21
ATOM     21  CB  GLU A   3       0.576  32.460  31.901  0.00  0.00    +0.039 C 
BRANCH  21  22
ATOM     22  CG  GLU A   3       1.287  31.454  30.977  0.00  0.00    +0.116 C 
BRANCH  22  23
ATOM     23  CD  GLU A   3       0.318  30.550  30.273  0.00  0.00    +0.365 C 
ATOM     24  OE2 GLU A   3       0.408  29.326  30.449  0.00  0.00    -0.246 OA
ATOM     25  OE1 GLU A   3      -0.545  31.062  29.545  0.00  0.00    -0.246 OA
ENDBRANCH  22  23
ENDBRANCH  21  22
ENDBRANCH  18  21
ENDBRANCH  15  18
ENDBRANCH   1  14
TORSDOF 11
REMARK  Name = ../refined-set-2016/2zxd/2zxd_pocket.pdb
REMARK  159 active torsions:
REMARK  status: ('A' for Active; 'I' for Inactive)
REMARK    1  A    between atoms: _1  and  _3
REMARK    2  A    between atoms: _3  and  _4
REMARK    3  A    between atoms: _3  and  _6
REMARK    4  A    between atoms: _6  and  _7
REMARK    5  A    between atoms: _13  and  _15
REMARK    6  A    between atoms: _15  and  _16
REMARK    7  A    between atoms: _15  and  _18
REMARK    8  A    between atoms: _18  and  _19
REMARK    9  A    between atoms: _24  and  _26
REMARK   10  A    between atoms: _26  and  _27
REMARK   11  A    between atoms: _26  and  _29
REMARK   12  A    between atoms: _29  and  _30
REMARK   13  A    between atoms: _35  and  _36
REMARK   14  A    between atoms: _38  and  _40
REMARK   15  A    between atoms: _40  and  _41
REMARK   16  A    between atoms: _40  and  _43
REMARK   17  A    between atoms: _43  and  _44
REMARK   18  A    between atoms: _47  and  _49
REMARK   19  A    between atoms: _49  and  _50
REMARK   20  A    between atoms: _49  and  _52
REMARK   21  A    between atoms: _52  and  _53
REMARK   22  A    between atoms: _63  and  _65
REMARK   23  A    between atoms: _65  and  _66
REMARK   24  A    between atoms: _65  and  _68
REMARK   25  A    between atoms: _68  and  _69
REMARK   26  A    between atoms: _75  and  _77
REMARK   27  A    between atoms: _77  and  _78
REMARK   28  A    between atoms: _77  and  _80
REMARK   29  A    between atoms: _80  and  _81
REMARK   30  A    between atoms: _86  and  _88
REMARK   31  A    between atoms: _88  and  _89
REMARK   32  A    between atoms: _88  and  _91
REMARK   33  A    between atoms: _91  and  _92
REMARK   34  A    between atoms: _97  and  _98
REMARK   35  A    between atoms: _100  and  _102
REMARK   36  A    between atoms: _102  and  _103
REMARK   37  A    between atoms: _106  and  _108
REMARK   38  A    between atoms: _108  and  _109
REMARK   39  A    between atoms: _108  and  _111
REMARK   40  A    between atoms: _111  and  _112
REMARK   41  A    between atoms: _112  and  _113
REMARK   42  A    between atoms: _116  and  _118
REMARK   43  A    between atoms: _118  and  _119
REMARK   44  A    between atoms: _118  and  _121
REMARK   45  A    between atoms: _121  and  _122
REMARK   46  A    between atoms: _132  and  _134
REMARK   47  A    between atoms: _134  and  _135
REMARK   48  A    between atoms: _134  and  _137
REMARK   49  A    between atoms: _137  and  _138
REMARK   50  A    between atoms: _143  and  _144
REMARK   51  A    between atoms: _146  and  _148
REMARK   52  A    between atoms: _148  and  _149
REMARK   53  A    between atoms: _148  and  _151
REMARK   54  A    between atoms: _151  and  _152
REMARK   55  A    between atoms: _155  and  _157
REMARK   56  A    between atoms: _157  and  _158
REMARK   57  A    between atoms: _157  and  _160
REMARK   58  A    between atoms: _160  and  _161
REMARK   59  A    between atoms: _166  and  _168
REMARK   60  A    between atoms: _168  and  _169
REMARK   61  A    between atoms: _168  and  _171
REMARK   62  A    between atoms: _171  and  _172
REMARK   63  A    between atoms: _177  and  _179
REMARK   64  A    between atoms: _179  and  _180
REMARK   65  A    between atoms: _179  and  _182
REMARK   66  A    between atoms: _182  and  _183
REMARK   67  A    between atoms: _186  and  _188
REMARK   68  A    between atoms: _188  and  _189
REMARK   69  A    between atoms: _188  and  _191
REMARK   70  A    between atoms: _191  and  _192
REMARK   71  A    between atoms: _197  and  _198
REMARK   72  A    between atoms: _200  and  _202
REMARK   73  A    between atoms: _202  and  _203
REMARK   74  A    between atoms: _202  and  _205
REMARK   75  A    between atoms: _205  and  _206
REMARK   76  A    between atoms: _208  and  _210
REMARK   77  A    between atoms: _210  and  _211
REMARK   78  A    between atoms: _210  and  _213
REMARK   79  A    between atoms: _213  and  _214
REMARK   80  A    between atoms: _217  and  _219
REMARK   81  A    between atoms: _219  and  _220
REMARK   82  A    between atoms: _219  and  _222
REMARK   83  A    between atoms: _222  and  _223
REMARK   84  A    between atoms: _233  and  _235
REMARK   85  A    between atoms: _235  and  _236
REMARK   86  A    between atoms: _235  and  _238
REMARK   87  A    between atoms: _238  and  _239
REMARK   88  A    between atoms: _242  and  _244
REMARK   89  A    between atoms: _244  and  _245
REMARK   90  A    between atoms: _244  and  _247
REMARK   91  A    between atoms: _247  and  _248
REMARK   92  A    between atoms: _258  and  _260
REMARK   93  A    between atoms: _260  and  _261
REMARK   94  A    between atoms: _260  and  _263
REMARK   95  A    between atoms: _263  and  _264
REMARK   96  A    between atoms: _269  and  _271
REMARK   97  A    between atoms: _271  and  _272
REMARK   98  A    between atoms: _271  and  _274
REMARK   99  A    between atoms: _274  and  _275
REMARK  100  A    between atoms: _278  and  _280
REMARK  101  A    between atoms: _280  and  _281
REMARK  102  A    between atoms: _280  and  _283
REMARK  103  A    between atoms: _283  and  _284
REMARK  104  A    between atoms: _284  and  _285
REMARK  105  A    between atoms: _287  and  _289
REMARK  106  A    between atoms: _289  and  _290
REMARK  107  A    between atoms: _289  and  _292
REMARK  108  A    between atoms: _292  and  _293
REMARK  109  A    between atoms: _298  and  _300
REMARK  110  A    between atoms: _300  and  _301
REMARK  111  A    between atoms: _300  and  _303
REMARK  112  A    between atoms: _303  and  _304
REMARK  113  A    between atoms: _304  and  _305
REMARK  114  A    between atoms: _305  and  _306
REMARK  115  A    between atoms: _315  and  _317
REMARK  116  A    between atoms: _317  and  _318
REMARK  117  A    between atoms: _317  and  _320
REMARK  118  A    between atoms: _320  and  _321
REMARK  119  A    between atoms: _324  and  _326
REMARK  120  A    between atoms: _326  and  _327
REMARK  121  A    between atoms: _330  and  _332
REMARK  122  A    between atoms: _332  and  _333
REMARK  123  A    between atoms: _332  and  _335
REMARK  124  A    between atoms: _335  and  _336
REMARK  125  A    between atoms: _336  and  _337
REMARK  126  A    between atoms: _340  and  _342
REMARK  127  A    between atoms: _342  and  _343
REMARK  128  A    between atoms: _342  and  _345
REMARK  129  A    between atoms: _345  and  _346
REMARK  130  A    between atoms: _351  and  _353
REMARK  131  A    between atoms: _353  and  _354
REMARK  132  A    between atoms: _353  and  _356
REMARK  133  A    between atoms: _356  and  _357
REMARK  134  A    between atoms: _360  and  _362
REMARK  135  A    between atoms: _362  and  _363
REMARK  136  A    between atoms: _362  and  _365
REMARK  137  A    between atoms: _365  and  _366
REMARK  138  A    between atoms: _366  and  _367
REMARK  139  A    between atoms: _367  and  _368
REMARK  140  A    between atoms: _377  and  _379
REMARK  141  A    between atoms: _379  and  _380
REMARK  142  A    between atoms: _382  and  _384
REMARK  143  A    between atoms: _384  and  _385
REMARK  144  A    between atoms: _384  and  _387
REMARK  145  A    between atoms: _387  and  _388
REMARK  146  A    between atoms: _390  and  _392
REMARK  147  A    between atoms: _392  and  _393
REMARK  148  A    between atoms: _392  and  _395
REMARK  149  A    between atoms: _395  and  _396
REMARK  150  A    between atoms: _402  and  _404
REMARK  151  A    between atoms: _404  and  _405
REMARK  152  A    between atoms: _407  and  _409
REMARK  153  A    between atoms: _409  and  _410
REMARK  154  A    between atoms: _409  and  _412
REMARK  155  A    between atoms: _412  and  _413
REMARK  156  A    between atoms: _416  and  _418
REMARK  157  A    between atoms: _418  and  _419
REMARK  158  A    between atoms: _418  and  _421
REMARK  159  A    between atoms: _421  and  _422
REMARK                            x       y       z     vdW  Elec       q    Type
REMARK                         _______ _______ _______ _____ _____    ______ ____
ROOT
ATOM      1  CB  HIS A   1      -4.168  33.575  34.915  0.00  0.00    +0.072 C 
ENDROOT
BRANCH   1   2
ATOM      2  CG  HIS A   1      -3.864  32.313  34.170  0.00  0.00    +0.082 A 
ATOM      3  CD2 HIS A   1      -4.384  31.070  34.272  0.00  0.00    +0.115 A 
ATOM      4  NE2 HIS A   1      -3.689  30.267  33.397  0.00  0.00    -0.221 NA
ATOM      5  CE1 HIS A   1      -2.778  30.995  32.776  0.00  0.00    +0.199 A 
ATOM      6  ND1 HIS A   1      -2.864  32.233  33.225  0.00  0.00    -0.227 NA
ENDBRANCH   1   2
BRANCH   1   7
ATOM      7  CA  HIS A   1      -2.970  34.100  35.693  0.00  0.00    +0.139 C 
BRANCH   7   8
ATOM      8  N   HIS A   1      -2.105  34.820  34.776  0.00  0.00    -0.239 NA
ATOM      9  H   HIS A   1      -2.276  34.717  33.755  0.00  0.00    +0.142 HD
ENDBRANCH   7   8
BRANCH   7  10
ATOM     10  C   HIS A   1      -2.312  32.879  36.366  0.00  0.00    +0.224 C 
ATOM     11  O   HIS A   1      -2.921  32.239  37.231  0.00  0.00    -0.287 OA
ENDBRANCH   7  10
ENDBRANCH   1   7
TORSDOF 4
REMARK  Name = ../refined-set-2016/2zxd/2zxd_pocket.pdb
REMARK  159 active torsions:
REMARK  status: ('A' for Active; 'I' for Inactive)
REMARK    1  A    between atoms: _1  and  _3
REMARK    2  A    between atoms: _3  and  _4
REMARK    3  A    between atoms: _3  and  _6
REMARK    4  A    between atoms: _6  and  _7
REMARK    5  A    between atoms: _13  and  _15
REMARK    6  A    between atoms: _15  and  _16
REMARK    7  A    between atoms: _15  and  _18
REMARK    8  A    between atoms: _18  and  _19
REMARK    9  A    between atoms: _24  and  _26
REMARK   10  A    between atoms: _26  and  _27
REMARK   11  A    between atoms: _26  and  _29
REMARK   12  A    between atoms: _29  and  _30
REMARK   13  A    between atoms: _35  and  _36
REMARK   14  A    between atoms: _38  and  _40
REMARK   15  A    between atoms: _40  and  _41
REMARK   16  A    between atoms: _40  and  _43
REMARK   17  A    between atoms: _43  and  _44
REMARK   18  A    between atoms: _47  and  _49
REMARK   19  A    between atoms: _49  and  _50
REMARK   20  A    between atoms: _49  and  _52
REMARK   21  A    between atoms: _52  and  _53
REMARK   22  A    between atoms: _63  and  _65
REMARK   23  A    between atoms: _65  and  _66
REMARK   24  A    between atoms: _65  and  _68
REMARK   25  A    between atoms: _68  and  _69
REMARK   26  A    between atoms: _75  and  _77
REMARK   27  A    between atoms: _77  and  _78
REMARK   28  A    between atoms: _77  and  _80
REMARK   29  A    between atoms: _80  and  _81
REMARK   30  A    between atoms: _86  and  _88
REMARK   31  A    between atoms: _88  and  _89
REMARK   32  A    between atoms: _88  and  _91
REMARK   33  A    between atoms: _91  and  _92
REMARK   34  A    between atoms: _97  and  _98
REMARK   35  A    between atoms: _100  and  _102
REMARK   36  A    between atoms: _102  and  _103
REMARK   37  A    between atoms: _106  and  _108
REMARK   38  A    between atoms: _108  and  _109
REMARK   39  A    between atoms: _108  and  _111
REMARK   40  A    between atoms: _111  and  _112
REMARK   41  A    between atoms: _112  and  _113
REMARK   42  A    between atoms: _116  and  _118
REMARK   43  A    between atoms: _118  and  _119
REMARK   44  A    between atoms: _118  and  _121
REMARK   45  A    between atoms: _121  and  _122
REMARK   46  A    between atoms: _132  and  _134
REMARK   47  A    between atoms: _134  and  _135
REMARK   48  A    between atoms: _134  and  _137
REMARK   49  A    between atoms: _137  and  _138
REMARK   50  A    between atoms: _143  and  _144
REMARK   51  A    between atoms: _146  and  _148
REMARK   52  A    between atoms: _148  and  _149
REMARK   53  A    between atoms: _148  and  _151
REMARK   54  A    between atoms: _151  and  _152
REMARK   55  A    between atoms: _155  and  _157
REMARK   56  A    between atoms: _157  and  _158
REMARK   57  A    between atoms: _157  and  _160
REMARK   58  A    between atoms: _160  and  _161
REMARK   59  A    between atoms: _166  and  _168
REMARK   60  A    between atoms: _168  and  _169
REMARK   61  A    between atoms: _168  and  _171
REMARK   62  A    between atoms: _171  and  _172
REMARK   63  A    between atoms: _177  and  _179
REMARK   64  A    between atoms: _179  and  _180
REMARK   65  A    between atoms: _179  and  _182
REMARK   66  A    between atoms: _182  and  _183
REMARK   67  A    between atoms: _186  and  _188
REMARK   68  A    between atoms: _188  and  _189
REMARK   69  A    between atoms: _188  and  _191
REMARK   70  A    between atoms: _191  and  _192
REMARK   71  A    between atoms: _197  and  _198
REMARK   72  A    between atoms: _200  and  _202
REMARK   73  A    between atoms: _202  and  _203
REMARK   74  A    between atoms: _202  and  _205
REMARK   75  A    between atoms: _205  and  _206
REMARK   76  A    between atoms: _208  and  _210
REMARK   77  A    between atoms: _210  and  _211
REMARK   78  A    between atoms: _210  and  _213
REMARK   79  A    between atoms: _213  and  _214
REMARK   80  A    between atoms: _217  and  _219
REMARK   81  A    between atoms: _219  and  _220
REMARK   82  A    between atoms: _219  and  _222
REMARK   83  A    between atoms: _222  and  _223
REMARK   84  A    between atoms: _233  and  _235
REMARK   85  A    between atoms: _235  and  _236
REMARK   86  A    between atoms: _235  and  _238
REMARK   87  A    between atoms: _238  and  _239
REMARK   88  A    between atoms: _242  and  _244
REMARK   89  A    between atoms: _244  and  _245
REMARK   90  A    between atoms: _244  and  _247
REMARK   91  A    between atoms: _247  and  _248
REMARK   92  A    between atoms: _258  and  _260
REMARK   93  A    between atoms: _260  and  _261
REMARK   94  A    between atoms: _260  and  _263
REMARK   95  A    between atoms: _263  and  _264
REMARK   96  A    between atoms: _269  and  _271
REMARK   97  A    between atoms: _271  and  _272
REMARK   98  A    between atoms: _271  and  _274
REMARK   99  A    between atoms: _274  and  _275
REMARK  100  A    between atoms: _278  and  _280
REMARK  101  A    between atoms: _280  and  _281
REMARK  102  A    between atoms: _280  and  _283
REMARK  103  A    between atoms: _283  and  _284
REMARK  104  A    between atoms: _284  and  _285
REMARK  105  A    between atoms: _287  and  _289
REMARK  106  A    between atoms: _289  and  _290
REMARK  107  A    between atoms: _289  and  _292
REMARK  108  A    between atoms: _292  and  _293
REMARK  109  A    between atoms: _298  and  _300
REMARK  110  A    between atoms: _300  and  _301
REMARK  111  A    between atoms: _300  and  _303
REMARK  112  A    between atoms: _303  and  _304
REMARK  113  A    between atoms: _304  and  _305
REMARK  114  A    between atoms: _305  and  _306
REMARK  115  A    between atoms: _315  and  _317
REMARK  116  A    between atoms: _317  and  _318
REMARK  117  A    between atoms: _317  and  _320
REMARK  118  A    between atoms: _320  and  _321
REMARK  119  A    between atoms: _324  and  _326
REMARK  120  A    between atoms: _326  and  _327
REMARK  121  A    between atoms: _330  and  _332
REMARK  122  A    between atoms: _332  and  _333
REMARK  123  A    between atoms: _332  and  _335
REMARK  124  A    between atoms: _335  and  _336
REMARK  125  A    between atoms: _336  and  _337
REMARK  126  A    between atoms: _340  and  _342
REMARK  127  A    between atoms: _342  and  _343
REMARK  128  A    between atoms: _342  and  _345
REMARK  129  A    between atoms: _345  and  _346
REMARK  130  A    between atoms: _351  and  _353
REMARK  131  A    between atoms: _353  and  _354
REMARK  132  A    between atoms: _353  and  _356
REMARK  133  A    between atoms: _356  and  _357
REMARK  134  A    between atoms: _360  and  _362
REMARK  135  A    between atoms: _362  and  _363
REMARK  136  A    between atoms: _362  and  _365
REMARK  137  A    between atoms: _365  and  _366
REMARK  138  A    between atoms: _366  and  _367
REMARK  139  A    between atoms: _367  and  _368
REMARK  140  A    between atoms: _377  and  _379
REMARK  141  A    between atoms: _379  and  _380
REMARK  142  A    between atoms: _382  and  _384
REMARK  143  A    between atoms: _384  and  _385
REMARK  144  A    between atoms: _384  and  _387
REMARK  145  A    between atoms: _387  and  _388
REMARK  146  A    between atoms: _390  and  _392
REMARK  147  A    between atoms: _392  and  _393
REMARK  148  A    between atoms: _392  and  _395
REMARK  149  A    between atoms: _395  and  _396
REMARK  150  A    between atoms: _402  and  _404
REMARK  151  A    between atoms: _404  and  _405
REMARK  152  A    between atoms: _407  and  _409
REMARK  153  A    between atoms: _409  and  _410
REMARK  154  A    between atoms: _409  and  _412
REMARK  155  A    between atoms: _412  and  _413
REMARK  156  A    between atoms: _416  and  _418
REMARK  157  A    between atoms: _418  and  _419
REMARK  158  A    between atoms: _418  and  _421
REMARK  159  A    between atoms: _421  and  _422
REMARK                            x       y       z     vdW  Elec       q    Type
REMARK                         _______ _______ _______ _____ _____    ______ ____
ROOT
ATOM      1  CA  ARG A   2       2.998  35.730  26.840  0.00  0.00    +0.149 C 
ENDROOT
BRANCH   1   4
ATOM      2  C   THR A   1       4.252  34.352  28.457  0.00  0.00    +0.241 C 
ATOM      3  O   THR A   1       3.316  34.275  29.261  0.00  0.00    -0.274 OA
ATOM      4  N   ARG A   2       4.211  35.091  27.349  0.00  0.00    -0.297 N 
ATOM      5  H   ARG A   2       5.094  35.221  26.815  0.00  0.00    +0.150 HD
BRANCH   2   6
ATOM      6  CA  THR A   1       5.593  33.634  28.731  0.00  0.00    +0.172 C 
BRANCH   6   7
ATOM      7  N   THR A   1       5.838  33.571  30.144  0.00  0.00    -0.236 NA
ATOM      8  H   THR A   1       5.115  33.219  30.803  0.00  0.00    +0.142 HD
ENDBRANCH   6   7
BRANCH   6   9
ATOM      9  CB  THR A   1       5.583  32.197  28.104  0.00  0.00    +0.135 C 
ATOM     10  CG2 THR A   1       4.503  31.360  28.706  0.00  0.00    +0.034 C 
BRANCH   9  11
ATOM     11  OG1 THR A   1       5.368  32.292  26.690  0.00  0.00    -0.383 OA
ATOM     12  HG1 THR A   1       6.096  32.825  26.282  0.00  0.00    +0.210 HD
ENDBRANCH   9  11
ENDBRANCH   6   9
ENDBRANCH   2   6
ENDBRANCH   1   4
BRANCH   1  13
ATOM     13  C   ARG A   2       3.298  36.148  25.387  0.00  0.00    +0.241 C 
ATOM     14  O   ARG A   2       4.461  36.128  24.934  0.00  0.00    -0.273 OA
ATOM     15  N   GLY A   3       2.252  36.470  24.644  0.00  0.00    -0.296 N 
ATOM     16  H   GLY A   3       1.286  36.430  25.028  0.00  0.00    +0.150 HD
BRANCH  15  17
ATOM     17  CA  GLY A   3       2.495  36.875  23.295  0.00  0.00    +0.163 C 
BRANCH  17  18
ATOM     18  C   GLY A   3       2.621  38.392  23.239  0.00  0.00    +0.229 C 
ATOM     19  O   GLY A   3       2.440  39.105  24.236  0.00  0.00    -0.286 OA
ENDBRANCH  17  18
ENDBRANCH  15  17
ENDBRANCH   1  13
BRANCH   1  20
ATOM     20  CB  ARG A   2       2.584  36.965  27.617  0.00  0.00    +0.033 C 
BRANCH  20  21
ATOM     21  CG  ARG A   2       3.509  38.163  27.454  0.00  0.00    +0.045 C 
BRANCH  21  22
ATOM     22  CD  ARG A   2       2.686  39.435  27.695  0.00  0.00    +0.174 C 
BRANCH  22  23
ATOM     23  NE  ARG A   2       1.735  39.624  26.592  0.00  0.00    -0.265 N 
ATOM     24  CZ  ARG A   2       0.659  40.397  26.638  0.00  0.00    +0.342 C 
ATOM     25  NH2 ARG A   2       0.394  41.052  27.749  0.00  0.00    -0.292 N 
ATOM     26 HH21 ARG A   2       1.024  40.958  28.571  0.00  0.00    +0.255 HD
ATOM     27 HH22 ARG A   2      -0.445  41.663  27.805  0.00  0.00    +0.255 HD
ATOM     28  NH1 ARG A   2      -0.114  40.534  25.554  0.00  0.00    -0.292 N 
ATOM     29 HH11 ARG A   2      -0.958  41.141  25.590  0.00  0.00    +0.255 HD
ATOM     30 HH12 ARG A   2       0.129  40.034  24.675  0.00  0.00    +0.255 HD
ATOM     31  HE  ARG A   2       1.920  39.112  25.706  0.00  0.00    +0.259 HD
ENDBRANCH  22  23
ENDBRANCH  21  22
ENDBRANCH  20  21
ENDBRANCH   1  20
TORSDOF 12
REMARK  Name = ../refined-set-2016/2zxd/2zxd_pocket.pdb
REMARK  159 active torsions:
REMARK  status: ('A' for Active; 'I' for Inactive)
REMARK    1  A    between atoms: _1  and  _3
REMARK    2  A    between atoms: _3  and  _4
REMARK    3  A    between atoms: _3  and  _6
REMARK    4  A    between atoms: _6  and  _7
REMARK    5  A    between atoms: _13  and  _15
REMARK    6  A    between atoms: _15  and  _16
REMARK    7  A    between atoms: _15  and  _18
REMARK    8  A    between atoms: _18  and  _19
REMARK    9  A    between atoms: _24  and  _26
REMARK   10  A    between atoms: _26  and  _27
REMARK   11  A    between atoms: _26  and  _29
REMARK   12  A    between atoms: _29  and  _30
REMARK   13  A    between atoms: _35  and  _36
REMARK   14  A    between atoms: _38  and  _40
REMARK   15  A    between atoms: _40  and  _41
REMARK   16  A    between atoms: _40  and  _43
REMARK   17  A    between atoms: _43  and  _44
REMARK   18  A    between atoms: _47  and  _49
REMARK   19  A    between atoms: _49  and  _50
REMARK   20  A    between atoms: _49  and  _52
REMARK   21  A    between atoms: _52  and  _53
REMARK   22  A    between atoms: _63  and  _65
REMARK   23  A    between atoms: _65  and  _66
REMARK   24  A    between atoms: _65  and  _68
REMARK   25  A    between atoms: _68  and  _69
REMARK   26  A    between atoms: _75  and  _77
REMARK   27  A    between atoms: _77  and  _78
REMARK   28  A    between atoms: _77  and  _80
REMARK   29  A    between atoms: _80  and  _81
REMARK   30  A    between atoms: _86  and  _88
REMARK   31  A    between atoms: _88  and  _89
REMARK   32  A    between atoms: _88  and  _91
REMARK   33  A    between atoms: _91  and  _92
REMARK   34  A    between atoms: _97  and  _98
REMARK   35  A    between atoms: _100  and  _102
REMARK   36  A    between atoms: _102  and  _103
REMARK   37  A    between atoms: _106  and  _108
REMARK   38  A    between atoms: _108  and  _109
REMARK   39  A    between atoms: _108  and  _111
REMARK   40  A    between atoms: _111  and  _112
REMARK   41  A    between atoms: _112  and  _113
REMARK   42  A    between atoms: _116  and  _118
REMARK   43  A    between atoms: _118  and  _119
REMARK   44  A    between atoms: _118  and  _121
REMARK   45  A    between atoms: _121  and  _122
REMARK   46  A    between atoms: _132  and  _134
REMARK   47  A    between atoms: _134  and  _135
REMARK   48  A    between atoms: _134  and  _137
REMARK   49  A    between atoms: _137  and  _138
REMARK   50  A    between atoms: _143  and  _144
REMARK   51  A    between atoms: _146  and  _148
REMARK   52  A    between atoms: _148  and  _149
REMARK   53  A    between atoms: _148  and  _151
REMARK   54  A    between atoms: _151  and  _152
REMARK   55  A    between atoms: _155  and  _157
REMARK   56  A    between atoms: _157  and  _158
REMARK   57  A    between atoms: _157  and  _160
REMARK   58  A    between atoms: _160  and  _161
REMARK   59  A    between atoms: _166  and  _168
REMARK   60  A    between atoms: _168  and  _169
REMARK   61  A    between atoms: _168  and  _171
REMARK   62  A    between atoms: _171  and  _172
REMARK   63  A    between atoms: _177  and  _179
REMARK   64  A    between atoms: _179  and  _180
REMARK   65  A    between atoms: _179  and  _182
REMARK   66  A    between atoms: _182  and  _183
REMARK   67  A    between atoms: _186  and  _188
REMARK   68  A    between atoms: _188  and  _189
REMARK   69  A    between atoms: _188  and  _191
REMARK   70  A    between atoms: _191  and  _192
REMARK   71  A    between atoms: _197  and  _198
REMARK   72  A    between atoms: _200  and  _202
REMARK   73  A    between atoms: _202  and  _203
REMARK   74  A    between atoms: _202  and  _205
REMARK   75  A    between atoms: _205  and  _206
REMARK   76  A    between atoms: _208  and  _210
REMARK   77  A    between atoms: _210  and  _211
REMARK   78  A    between atoms: _210  and  _213
REMARK   79  A    between atoms: _213  and  _214
REMARK   80  A    between atoms: _217  and  _219
REMARK   81  A    between atoms: _219  and  _220
REMARK   82  A    between atoms: _219  and  _222
REMARK   83  A    between atoms: _222  and  _223
REMARK   84  A    between atoms: _233  and  _235
REMARK   85  A    between atoms: _235  and  _236
REMARK   86  A    between atoms: _235  and  _238
REMARK   87  A    between atoms: _238  and  _239
REMARK   88  A    between atoms: _242  and  _244
REMARK   89  A    between atoms: _244  and  _245
REMARK   90  A    between atoms: _244  and  _247
REMARK   91  A    between atoms: _247  and  _248
REMARK   92  A    between atoms: _258  and  _260
REMARK   93  A    between atoms: _260  and  _261
REMARK   94  A    between atoms: _260  and  _263
REMARK   95  A    between atoms: _263  and  _264
REMARK   96  A    between atoms: _269  and  _271
REMARK   97  A    between atoms: _271  and  _272
REMARK   98  A    between atoms: _271  and  _274
REMARK   99  A    between atoms: _274  and  _275
REMARK  100  A    between atoms: _278  and  _280
REMARK  101  A    between atoms: _280  and  _281
REMARK  102  A    between atoms: _280  and  _283
REMARK  103  A    between atoms: _283  and  _284
REMARK  104  A    between atoms: _284  and  _285
REMARK  105  A    between atoms: _287  and  _289
REMARK  106  A    between atoms: _289  and  _290
REMARK  107  A    between atoms: _289  and  _292
REMARK  108  A    between atoms: _292  and  _293
REMARK  109  A    between atoms: _298  and  _300
REMARK  110  A    between atoms: _300  and  _301
REMARK  111  A    between atoms: _300  and  _303
REMARK  112  A    between atoms: _303  and  _304
REMARK  113  A    between atoms: _304  and  _305
REMARK  114  A    between atoms: _305  and  _306
REMARK  115  A    between atoms: _315  and  _317
REMARK  116  A    between atoms: _317  and  _318
REMARK  117  A    between atoms: _317  and  _320
REMARK  118  A    between atoms: _320  and  _321
REMARK  119  A    between atoms: _324  and  _326
REMARK  120  A    between atoms: _326  and  _327
REMARK  121  A    between atoms: _330  and  _332
REMARK  122  A    between atoms: _332  and  _333
REMARK  123  A    between atoms: _332  and  _335
REMARK  124  A    between atoms: _335  and  _336
REMARK  125  A    between atoms: _336  and  _337
REMARK  126  A    between atoms: _340  and  _342
REMARK  127  A    between atoms: _342  and  _343
REMARK  128  A    between atoms: _342  and  _345
REMARK  129  A    between atoms: _345  and  _346
REMARK  130  A    between atoms: _351  and  _353
REMARK  131  A    between atoms: _353  and  _354
REMARK  132  A    between atoms: _353  and  _356
REMARK  133  A    between atoms: _356  and  _357
REMARK  134  A    between atoms: _360  and  _362
REMARK  135  A    between atoms: _362  and  _363
REMARK  136  A    between atoms: _362  and  _365
REMARK  137  A    between atoms: _365  and  _366
REMARK  138  A    between atoms: _366  and  _367
REMARK  139  A    between atoms: _367  and  _368
REMARK  140  A    between atoms: _377  and  _379
REMARK  141  A    between atoms: _379  and  _380
REMARK  142  A    between atoms: _382  and  _384
REMARK  143  A    between atoms: _384  and  _385
REMARK  144  A    between atoms: _384  and  _387
REMARK  145  A    between atoms: _387  and  _388
REMARK  146  A    between atoms: _390  and  _392
REMARK  147  A    between atoms: _392  and  _393
REMARK  148  A    between atoms: _392  and  _395
REMARK  149  A    between atoms: _395  and  _396
REMARK  150  A    between atoms: _402  and  _404
REMARK  151  A    between atoms: _404  and  _405
REMARK  152  A    between atoms: _407  and  _409
REMARK  153  A    between atoms: _409  and  _410
REMARK  154  A    between atoms: _409  and  _412
REMARK  155  A    between atoms: _412  and  _413
REMARK  156  A    between atoms: _416  and  _418
REMARK  157  A    between atoms: _418  and  _419
REMARK  158  A    between atoms: _418  and  _421
REMARK  159  A    between atoms: _421  and  _422
REMARK                            x       y       z     vdW  Elec       q    Type
REMARK                         _______ _______ _______ _____ _____    ______ ____
ROOT
ATOM      1  CA  PHE A   2      -0.106  32.900  20.220  0.00  0.00    +0.153 C 
ENDROOT
BRANCH   1   4
ATOM      2  C   SER A   1      -1.727  34.602  20.571  0.00  0.00    +0.241 C 
ATOM      3  O   SER A   1      -0.826  35.368  20.738  0.00  0.00    -0.274 OA
ATOM      4  N   PHE A   2      -1.488  33.317  20.383  0.00  0.00    -0.297 N 
ATOM      5  H   PHE A   2      -2.264  32.626  20.353  0.00  0.00    +0.150 HD
BRANCH   2   6
ATOM      6  CA  SER A   1      -3.176  35.105  20.631  0.00  0.00    +0.174 C 
BRANCH   6   7
ATOM      7  N   SER A   1      -3.167  36.465  21.171  0.00  0.00    -0.236 NA
ATOM      8  H   SER A   1      -2.736  37.222  20.602  0.00  0.00    +0.142 HD
ENDBRANCH   6   7
BRANCH   6   9
ATOM      9  CB  SER A   1      -3.768  35.156  19.212  0.00  0.00    +0.163 C 
BRANCH   9  10
ATOM     10  OG  SER A   1      -3.603  33.948  18.514  0.00  0.00    -0.380 OA
ATOM     11  H   SER A   1      -2.638  33.744  18.434  0.00  0.00    +0.211 HD
ENDBRANCH   9  10
ENDBRANCH   6   9
ENDBRANCH   2   6
ENDBRANCH   1   4
BRANCH   1  12
ATOM     12  C   PHE A   2       0.073  32.754  18.694  0.00  0.00    +0.241 C 
ATOM     13  O   PHE A   2       1.011  33.296  18.130  0.00  0.00    -0.273 OA
ATOM     14  N   GLY A   3      -0.837  32.031  18.050  0.00  0.00    -0.296 N 
ATOM     15  H   GLY A   3      -1.580  31.535  18.582  0.00  0.00    +0.150 HD
BRANCH  14  16
ATOM     16  CA  GLY A   3      -0.792  31.934  16.602  0.00  0.00    +0.163 C 
BRANCH  16  17
ATOM     17  C   GLY A   3      -1.213  33.290  16.025  0.00  0.00    +0.229 C 
ATOM     18  O   GLY A   3      -1.933  34.080  16.661  0.00  0.00    -0.286 OA
ENDBRANCH  16  17
ENDBRANCH  14  16
ENDBRANCH   1  12
BRANCH   1  19
ATOM     19  CB  PHE A   2       0.179  31.617  21.002  0.00  0.00    +0.055 C 
BRANCH  19  20
ATOM     20  CG  PHE A   2       0.304  31.875  22.512  0.00  0.00    -0.020 A 
ATOM     21  CD2 PHE A   2      -0.826  31.876  23.338  0.00  0.00    -0.004 A 
ATOM     22  CE2 PHE A   2      -0.724  32.198  24.736  0.00  0.00    -0.000 A 
ATOM     23  CZ  PHE A   2       0.541  32.505  25.283  0.00  0.00    -0.000 A 
ATOM     24  CE1 PHE A   2       1.676  32.498  24.463  0.00  0.00    -0.000 A 
ATOM     25  CD1 PHE A   2       1.554  32.187  23.073  0.00  0.00    -0.004 A 
ENDBRANCH  19  20
ENDBRANCH   1  19
TORSDOF 10
REMARK  Name = ../refined-set-2016/2zxd/2zxd_pocket.pdb
REMARK  159 active torsions:
REMARK  status: ('A' for Active; 'I' for Inactive)
REMARK    1  A    between atoms: _1  and  _3
REMARK    2  A    between atoms: _3  and  _4
REMARK    3  A    between atoms: _3  and  _6
REMARK    4  A    between atoms: _6  and  _7
REMARK    5  A    between atoms: _13  and  _15
REMARK    6  A    between atoms: _15  and  _16
REMARK    7  A    between atoms: _15  and  _18
REMARK    8  A    between atoms: _18  and  _19
REMARK    9  A    between atoms: _24  and  _26
REMARK   10  A    between atoms: _26  and  _27
REMARK   11  A    between atoms: _26  and  _29
REMARK   12  A    between atoms: _29  and  _30
REMARK   13  A    between atoms: _35  and  _36
REMARK   14  A    between atoms: _38  and  _40
REMARK   15  A    between atoms: _40  and  _41
REMARK   16  A    between atoms: _40  and  _43
REMARK   17  A    between atoms: _43  and  _44
REMARK   18  A    between atoms: _47  and  _49
REMARK   19  A    between atoms: _49  and  _50
REMARK   20  A    between atoms: _49  and  _52
REMARK   21  A    between atoms: _52  and  _53
REMARK   22  A    between atoms: _63  and  _65
REMARK   23  A    between atoms: _65  and  _66
REMARK   24  A    between atoms: _65  and  _68
REMARK   25  A    between atoms: _68  and  _69
REMARK   26  A    between atoms: _75  and  _77
REMARK   27  A    between atoms: _77  and  _78
REMARK   28  A    between atoms: _77  and  _80
REMARK   29  A    between atoms: _80  and  _81
REMARK   30  A    between atoms: _86  and  _88
REMARK   31  A    between atoms: _88  and  _89
REMARK   32  A    between atoms: _88  and  _91
REMARK   33  A    between atoms: _91  and  _92
REMARK   34  A    between atoms: _97  and  _98
REMARK   35  A    between atoms: _100  and  _102
REMARK   36  A    between atoms: _102  and  _103
REMARK   37  A    between atoms: _106  and  _108
REMARK   38  A    between atoms: _108  and  _109
REMARK   39  A    between atoms: _108  and  _111
REMARK   40  A    between atoms: _111  and  _112
REMARK   41  A    between atoms: _112  and  _113
REMARK   42  A    between atoms: _116  and  _118
REMARK   43  A    between atoms: _118  and  _119
REMARK   44  A    between atoms: _118  and  _121
REMARK   45  A    between atoms: _121  and  _122
REMARK   46  A    between atoms: _132  and  _134
REMARK   47  A    between atoms: _134  and  _135
REMARK   48  A    between atoms: _134  and  _137
REMARK   49  A    between atoms: _137  and  _138
REMARK   50  A    between atoms: _143  and  _144
REMARK   51  A    between atoms: _146  and  _148
REMARK   52  A    between atoms: _148  and  _149
REMARK   53  A    between atoms: _148  and  _151
REMARK   54  A    between atoms: _151  and  _152
REMARK   55  A    between atoms: _155  and  _157
REMARK   56  A    between atoms: _157  and  _158
REMARK   57  A    between atoms: _157  and  _160
REMARK   58  A    between atoms: _160  and  _161
REMARK   59  A    between atoms: _166  and  _168
REMARK   60  A    between atoms: _168  and  _169
REMARK   61  A    between atoms: _168  and  _171
REMARK   62  A    between atoms: _171  and  _172
REMARK   63  A    between atoms: _177  and  _179
REMARK   64  A    between atoms: _179  and  _180
REMARK   65  A    between atoms: _179  and  _182
REMARK   66  A    between atoms: _182  and  _183
REMARK   67  A    between atoms: _186  and  _188
REMARK   68  A    between atoms: _188  and  _189
REMARK   69  A    between atoms: _188  and  _191
REMARK   70  A    between atoms: _191  and  _192
REMARK   71  A    between atoms: _197  and  _198
REMARK   72  A    between atoms: _200  and  _202
REMARK   73  A    between atoms: _202  and  _203
REMARK   74  A    between atoms: _202  and  _205
REMARK   75  A    between atoms: _205  and  _206
REMARK   76  A    between atoms: _208  and  _210
REMARK   77  A    between atoms: _210  and  _211
REMARK   78  A    between atoms: _210  and  _213
REMARK   79  A    between atoms: _213  and  _214
REMARK   80  A    between atoms: _217  and  _219
REMARK   81  A    between atoms: _219  and  _220
REMARK   82  A    between atoms: _219  and  _222
REMARK   83  A    between atoms: _222  and  _223
REMARK   84  A    between atoms: _233  and  _235
REMARK   85  A    between atoms: _235  and  _236
REMARK   86  A    between atoms: _235  and  _238
REMARK   87  A    between atoms: _238  and  _239
REMARK   88  A    between atoms: _242  and  _244
REMARK   89  A    between atoms: _244  and  _245
REMARK   90  A    between atoms: _244  and  _247
REMARK   91  A    between atoms: _247  and  _248
REMARK   92  A    between atoms: _258  and  _260
REMARK   93  A    between atoms: _260  and  _261
REMARK   94  A    between atoms: _260  and  _263
REMARK   95  A    between atoms: _263  and  _264
REMARK   96  A    between atoms: _269  and  _271
REMARK   97  A    between atoms: _271  and  _272
REMARK   98  A    between atoms: _271  and  _274
REMARK   99  A    between atoms: _274  and  _275
REMARK  100  A    between atoms: _278  and  _280
REMARK  101  A    between atoms: _280  and  _281
REMARK  102  A    between atoms: _280  and  _283
REMARK  103  A    between atoms: _283  and  _284
REMARK  104  A    between atoms: _284  and  _285
REMARK  105  A    between atoms: _287  and  _289
REMARK  106  A    between atoms: _289  and  _290
REMARK  107  A    between atoms: _289  and  _292
REMARK  108  A    between atoms: _292  and  _293
REMARK  109  A    between atoms: _298  and  _300
REMARK  110  A    between atoms: _300  and  _301
REMARK  111  A    between atoms: _300  and  _303
REMARK  112  A    between atoms: _303  and  _304
REMARK  113  A    between atoms: _304  and  _305
REMARK  114  A    between atoms: _305  and  _306
REMARK  115  A    between atoms: _315  and  _317
REMARK  116  A    between atoms: _317  and  _318
REMARK  117  A    between atoms: _317  and  _320
REMARK  118  A    between atoms: _320  and  _321
REMARK  119  A    between atoms: _324  and  _326
REMARK  120  A    between atoms: _326  and  _327
REMARK  121  A    between atoms: _330  and  _332
REMARK  122  A    between atoms: _332  and  _333
REMARK  123  A    between atoms: _332  and  _335
REMARK  124  A    between atoms: _335  and  _336
REMARK  125  A    between atoms: _336  and  _337
REMARK  126  A    between atoms: _340  and  _342
REMARK  127  A    between atoms: _342  and  _343
REMARK  128  A    between atoms: _342  and  _345
REMARK  129  A    between atoms: _345  and  _346
REMARK  130  A    between atoms: _351  and  _353
REMARK  131  A    between atoms: _353  and  _354
REMARK  132  A    between atoms: _353  and  _356
REMARK  133  A    between atoms: _356  and  _357
REMARK  134  A    between atoms: _360  and  _362
REMARK  135  A    between atoms: _362  and  _363
REMARK  136  A    between atoms: _362  and  _365
REMARK  137  A    between atoms: _365  and  _366
REMARK  138  A    between atoms: _366  and  _367
REMARK  139  A    between atoms: _367  and  _368
REMARK  140  A    between atoms: _377  and  _379
REMARK  141  A    between atoms: _379  and  _380
REMARK  142  A    between atoms: _382  and  _384
REMARK  143  A    between atoms: _384  and  _385
REMARK  144  A    between atoms: _384  and  _387
REMARK  145  A    between atoms: _387  and  _388
REMARK  146  A    between atoms: _390  and  _392
REMARK  147  A    between atoms: _392  and  _393
REMARK  148  A    between atoms: _392  and  _395
REMARK  149  A    between atoms: _395  and  _396
REMARK  150  A    between atoms: _402  and  _404
REMARK  151  A    between atoms: _404  and  _405
REMARK  152  A    between atoms: _407  and  _409
REMARK  153  A    between atoms: _409  and  _410
REMARK  154  A    between atoms: _409  and  _412
REMARK  155  A    between atoms: _412  and  _413
REMARK  156  A    between atoms: _416  and  _418
REMARK  157  A    between atoms: _418  and  _419
REMARK  158  A    between atoms: _418  and  _421
REMARK  159  A    between atoms: _421  and  _422
REMARK                            x       y       z     vdW  Elec       q    Type
REMARK                         _______ _______ _______ _____ _____    ______ ____
ROOT
ATOM      1  CA  LEU A   1       9.701  33.847  26.678  0.00  0.00    +0.133 C 
ENDROOT
BRANCH   1   2
ATOM      2  N   LEU A   1       9.817  34.591  27.934  0.00  0.00    -0.239 NA
ATOM      3  H   LEU A   1       9.079  34.470  28.657  0.00  0.00    +0.142 HD
ENDBRANCH   1   2
BRANCH   1   4
ATOM      4  C   LEU A   1       8.508  34.531  25.901  0.00  0.00    +0.224 C 
ATOM      5  O   LEU A   1       7.297  34.280  26.169  0.00  0.00    -0.287 OA
ENDBRANCH   1   4
BRANCH   1   6
ATOM      6  CB  LEU A   1       9.469  32.333  26.968  0.00  0.00    +0.025 C 
BRANCH   6   7
ATOM      7  CG  LEU A   1       9.244  31.421  25.730  0.00  0.00    +0.002 C 
ATOM      8  CD2 LEU A   1       8.950  29.989  26.151  0.00  0.00    +0.000 C 
ATOM      9  CD1 LEU A   1      10.493  31.513  24.773  0.00  0.00    +0.000 C 
ENDBRANCH   6   7
ENDBRANCH   1   6
TORSDOF 4
REMARK  Name = ../refined-set-2016/2zxd/2zxd_pocket.pdb
REMARK  159 active torsions:
REMARK  status: ('A' for Active; 'I' for Inactive)
REMARK    1  A    between atoms: _1  and  _3
REMARK    2  A    between atoms: _3  and  _4
REMARK    3  A    between atoms: _3  and  _6
REMARK    4  A    between atoms: _6  and  _7
REMARK    5  A    between atoms: _13  and  _15
REMARK    6  A    between atoms: _15  and  _16
REMARK    7  A    between atoms: _15  and  _18
REMARK    8  A    between atoms: _18  and  _19
REMARK    9  A    between atoms: _24  and  _26
REMARK   10  A    between atoms: _26  and  _27
REMARK   11  A    between atoms: _26  and  _29
REMARK   12  A    between atoms: _29  and  _30
REMARK   13  A    between atoms: _35  and  _36
REMARK   14  A    between atoms: _38  and  _40
REMARK   15  A    between atoms: _40  and  _41
REMARK   16  A    between atoms: _40  and  _43
REMARK   17  A    between atoms: _43  and  _44
REMARK   18  A    between atoms: _47  and  _49
REMARK   19  A    between atoms: _49  and  _50
REMARK   20  A    between atoms: _49  and  _52
REMARK   21  A    between atoms: _52  and  _53
REMARK   22  A    between atoms: _63  and  _65
REMARK   23  A    between atoms: _65  and  _66
REMARK   24  A    between atoms: _65  and  _68
REMARK   25  A    between atoms: _68  and  _69
REMARK   26  A    between atoms: _75  and  _77
REMARK   27  A    between atoms: _77  and  _78
REMARK   28  A    between atoms: _77  and  _80
REMARK   29  A    between atoms: _80  and  _81
REMARK   30  A    between atoms: _86  and  _88
REMARK   31  A    between atoms: _88  and  _89
REMARK   32  A    between atoms: _88  and  _91
REMARK   33  A    between atoms: _91  and  _92
REMARK   34  A    between atoms: _97  and  _98
REMARK   35  A    between atoms: _100  and  _102
REMARK   36  A    between atoms: _102  and  _103
REMARK   37  A    between atoms: _106  and  _108
REMARK   38  A    between atoms: _108  and  _109
REMARK   39  A    between atoms: _108  and  _111
REMARK   40  A    between atoms: _111  and  _112
REMARK   41  A    between atoms: _112  and  _113
REMARK   42  A    between atoms: _116  and  _118
REMARK   43  A    between atoms: _118  and  _119
REMARK   44  A    between atoms: _118  and  _121
REMARK   45  A    between atoms: _121  and  _122
REMARK   46  A    between atoms: _132  and  _134
REMARK   47  A    between atoms: _134  and  _135
REMARK   48  A    between atoms: _134  and  _137
REMARK   49  A    between atoms: _137  and  _138
REMARK   50  A    between atoms: _143  and  _144
REMARK   51  A    between atoms: _146  and  _148
REMARK   52  A    between atoms: _148  and  _149
REMARK   53  A    between atoms: _148  and  _151
REMARK   54  A    between atoms: _151  and  _152
REMARK   55  A    between atoms: _155  and  _157
REMARK   56  A    between atoms: _157  and  _158
REMARK   57  A    between atoms: _157  and  _160
REMARK   58  A    between atoms: _160  and  _161
REMARK   59  A    between atoms: _166  and  _168
REMARK   60  A    between atoms: _168  and  _169
REMARK   61  A    between atoms: _168  and  _171
REMARK   62  A    between atoms: _171  and  _172
REMARK   63  A    between atoms: _177  and  _179
REMARK   64  A    between atoms: _179  and  _180
REMARK   65  A    between atoms: _179  and  _182
REMARK   66  A    between atoms: _182  and  _183
REMARK   67  A    between atoms: _186  and  _188
REMARK   68  A    between atoms: _188  and  _189
REMARK   69  A    between atoms: _188  and  _191
REMARK   70  A    between atoms: _191  and  _192
REMARK   71  A    between atoms: _197  and  _198
REMARK   72  A    between atoms: _200  and  _202
REMARK   73  A    between atoms: _202  and  _203
REMARK   74  A    between atoms: _202  and  _205
REMARK   75  A    between atoms: _205  and  _206
REMARK   76  A    between atoms: _208  and  _210
REMARK   77  A    between atoms: _210  and  _211
REMARK   78  A    between atoms: _210  and  _213
REMARK   79  A    between atoms: _213  and  _214
REMARK   80  A    between atoms: _217  and  _219
REMARK   81  A    between atoms: _219  and  _220
REMARK   82  A    between atoms: _219  and  _222
REMARK   83  A    between atoms: _222  and  _223
REMARK   84  A    between atoms: _233  and  _235
REMARK   85  A    between atoms: _235  and  _236
REMARK   86  A    between atoms: _235  and  _238
REMARK   87  A    between atoms: _238  and  _239
REMARK   88  A    between atoms: _242  and  _244
REMARK   89  A    between atoms: _244  and  _245
REMARK   90  A    between atoms: _244  and  _247
REMARK   91  A    between atoms: _247  and  _248
REMARK   92  A    between atoms: _258  and  _260
REMARK   93  A    between atoms: _260  and  _261
REMARK   94  A    between atoms: _260  and  _263
REMARK   95  A    between atoms: _263  and  _264
REMARK   96  A    between atoms: _269  and  _271
REMARK   97  A    between atoms: _271  and  _272
REMARK   98  A    between atoms: _271  and  _274
REMARK   99  A    between atoms: _274  and  _275
REMARK  100  A    between atoms: _278  and  _280
REMARK  101  A    between atoms: _280  and  _281
REMARK  102  A    between atoms: _280  and  _283
REMARK  103  A    between atoms: _283  and  _284
REMARK  104  A    between atoms: _284  and  _285
REMARK  105  A    between atoms: _287  and  _289
REMARK  106  A    between atoms: _289  and  _290
REMARK  107  A    between atoms: _289  and  _292
REMARK  108  A    between atoms: _292  and  _293
REMARK  109  A    between atoms: _298  and  _300
REMARK  110  A    between atoms: _300  and  _301
REMARK  111  A    between atoms: _300  and  _303
REMARK  112  A    between atoms: _303  and  _304
REMARK  113  A    between atoms: _304  and  _305
REMARK  114  A    between atoms: _305  and  _306
REMARK  115  A    between atoms: _315  and  _317
REMARK  116  A    between atoms: _317  and  _318
REMARK  117  A    between atoms: _317  and  _320
REMARK  118  A    between atoms: _320  and  _321
REMARK  119  A    between atoms: _324  and  _326
REMARK  120  A    between atoms: _326  and  _327
REMARK  121  A    between atoms: _330  and  _332
REMARK  122  A    between atoms: _332  and  _333
REMARK  123  A    between atoms: _332  and  _335
REMARK  124  A    between atoms: _335  and  _336
REMARK  125  A    between atoms: _336  and  _337
REMARK  126  A    between atoms: _340  and  _342
REMARK  127  A    between atoms: _342  and  _343
REMARK  128  A    between atoms: _342  and  _345
REMARK  129  A    between atoms: _345  and  _346
REMARK  130  A    between atoms: _351  and  _353
REMARK  131  A    between atoms: _353  and  _354
REMARK  132  A    between atoms: _353  and  _356
REMARK  133  A    between atoms: _356  and  _357
REMARK  134  A    between atoms: _360  and  _362
REMARK  135  A    between atoms: _362  and  _363
REMARK  136  A    between atoms: _362  and  _365
REMARK  137  A    between atoms: _365  and  _366
REMARK  138  A    between atoms: _366  and  _367
REMARK  139  A    between atoms: _367  and  _368
REMARK  140  A    between atoms: _377  and  _379
REMARK  141  A    between atoms: _379  and  _380
REMARK  142  A    between atoms: _382  and  _384
REMARK  143  A    between atoms: _384  and  _385
REMARK  144  A    between atoms: _384  and  _387
REMARK  145  A    between atoms: _387  and  _388
REMARK  146  A    between atoms: _390  and  _392
REMARK  147  A    between atoms: _392  and  _393
REMARK  148  A    between atoms: _392  and  _395
REMARK  149  A    between atoms: _395  and  _396
REMARK  150  A    between atoms: _402  and  _404
REMARK  151  A    between atoms: _404  and  _405
REMARK  152  A    between atoms: _407  and  _409
REMARK  153  A    between atoms: _409  and  _410
REMARK  154  A    between atoms: _409  and  _412
REMARK  155  A    between atoms: _412  and  _413
REMARK  156  A    between atoms: _416  and  _418
REMARK  157  A    between atoms: _418  and  _419
REMARK  158  A    between atoms: _418  and  _421
REMARK  159  A    between atoms: _421  and  _422
REMARK                            x       y       z     vdW  Elec       q    Type
REMARK                         _______ _______ _______ _____ _____    ______ ____
ROOT
ATOM      1  CB  ASN A   1       4.440  34.045  21.856  0.00  0.00    +0.110 C 
ENDROOT
BRANCH   1   2
ATOM      2  CG  ASN A   1       3.853  33.320  20.621  0.00  0.00    +0.221 C 
ATOM      3  OD1 ASN A   1       4.274  32.215  20.288  0.00  0.00    -0.275 OA
ATOM      4  ND2 ASN A   1       2.896  33.959  19.943  0.00  0.00    -0.329 N 
ATOM      5 HD21 ASN A   1       2.569  34.894  20.261  0.00  0.00    +0.145 HD
ATOM      6 HD22 ASN A   1       2.477  33.522  19.097  0.00  0.00    +0.145 HD
ENDBRANCH   1   2
BRANCH   1   7
ATOM      7  CA  ASN A   1       5.749  34.788  21.532  0.00  0.00    +0.142 C 
BRANCH   7   8
ATOM      8  N   ASN A   1       6.251  35.478  22.706  0.00  0.00    -0.239 NA
ATOM      9  H   ASN A   1       5.584  35.862  23.405  0.00  0.00    +0.142 HD
ENDBRANCH   7   8
BRANCH   7  10
ATOM     10  C   ASN A   1       5.497  35.654  20.314  0.00  0.00    +0.225 C 
ATOM     11  O   ASN A   1       4.978  36.758  20.432  0.00  0.00    -0.287 OA
ENDBRANCH   7  10
ENDBRANCH   1   7
TORSDOF 4
REMARK  Name = ../refined-set-2016/2zxd/2zxd_pocket.pdb
REMARK  159 active torsions:
REMARK  status: ('A' for Active; 'I' for Inactive)
REMARK    1  A    between atoms: _1  and  _3
REMARK    2  A    between atoms: _3  and  _4
REMARK    3  A    between atoms: _3  and  _6
REMARK    4  A    between atoms: _6  and  _7
REMARK    5  A    between atoms: _13  and  _15
REMARK    6  A    between atoms: _15  and  _16
REMARK    7  A    between atoms: _15  and  _18
REMARK    8  A    between atoms: _18  and  _19
REMARK    9  A    between atoms: _24  and  _26
REMARK   10  A    between atoms: _26  and  _27
REMARK   11  A    between atoms: _26  and  _29
REMARK   12  A    between atoms: _29  and  _30
REMARK   13  A    between atoms: _35  and  _36
REMARK   14  A    between atoms: _38  and  _40
REMARK   15  A    between atoms: _40  and  _41
REMARK   16  A    between atoms: _40  and  _43
REMARK   17  A    between atoms: _43  and  _44
REMARK   18  A    between atoms: _47  and  _49
REMARK   19  A    between atoms: _49  and  _50
REMARK   20  A    between atoms: _49  and  _52
REMARK   21  A    between atoms: _52  and  _53
REMARK   22  A    between atoms: _63  and  _65
REMARK   23  A    between atoms: _65  and  _66
REMARK   24  A    between atoms: _65  and  _68
REMARK   25  A    between atoms: _68  and  _69
REMARK   26  A    between atoms: _75  and  _77
REMARK   27  A    between atoms: _77  and  _78
REMARK   28  A    between atoms: _77  and  _80
REMARK   29  A    between atoms: _80  and  _81
REMARK   30  A    between atoms: _86  and  _88
REMARK   31  A    between atoms: _88  and  _89
REMARK   32  A    between atoms: _88  and  _91
REMARK   33  A    between atoms: _91  and  _92
REMARK   34  A    between atoms: _97  and  _98
REMARK   35  A    between atoms: _100  and  _102
REMARK   36  A    between atoms: _102  and  _103
REMARK   37  A    between atoms: _106  and  _108
REMARK   38  A    between atoms: _108  and  _109
REMARK   39  A    between atoms: _108  and  _111
REMARK   40  A    between atoms: _111  and  _112
REMARK   41  A    between atoms: _112  and  _113
REMARK   42  A    between atoms: _116  and  _118
REMARK   43  A    between atoms: _118  and  _119
REMARK   44  A    between atoms: _118  and  _121
REMARK   45  A    between atoms: _121  and  _122
REMARK   46  A    between atoms: _132  and  _134
REMARK   47  A    between atoms: _134  and  _135
REMARK   48  A    between atoms: _134  and  _137
REMARK   49  A    between atoms: _137  and  _138
REMARK   50  A    between atoms: _143  and  _144
REMARK   51  A    between atoms: _146  and  _148
REMARK   52  A    between atoms: _148  and  _149
REMARK   53  A    between atoms: _148  and  _151
REMARK   54  A    between atoms: _151  and  _152
REMARK   55  A    between atoms: _155  and  _157
REMARK   56  A    between atoms: _157  and  _158
REMARK   57  A    between atoms: _157  and  _160
REMARK   58  A    between atoms: _160  and  _161
REMARK   59  A    between atoms: _166  and  _168
REMARK   60  A    between atoms: _168  and  _169
REMARK   61  A    between atoms: _168  and  _171
REMARK   62  A    between atoms: _171  and  _172
REMARK   63  A    between atoms: _177  and  _179
REMARK   64  A    between atoms: _179  and  _180
REMARK   65  A    between atoms: _179  and  _182
REMARK   66  A    between atoms: _182  and  _183
REMARK   67  A    between atoms: _186  and  _188
REMARK   68  A    between atoms: _188  and  _189
REMARK   69  A    between atoms: _188  and  _191
REMARK   70  A    between atoms: _191  and  _192
REMARK   71  A    between atoms: _197  and  _198
REMARK   72  A    between atoms: _200  and  _202
REMARK   73  A    between atoms: _202  and  _203
REMARK   74  A    between atoms: _202  and  _205
REMARK   75  A    between atoms: _205  and  _206
REMARK   76  A    between atoms: _208  and  _210
REMARK   77  A    between atoms: _210  and  _211
REMARK   78  A    between atoms: _210  and  _213
REMARK   79  A    between atoms: _213  and  _214
REMARK   80  A    between atoms: _217  and  _219
REMARK   81  A    between atoms: _219  and  _220
REMARK   82  A    between atoms: _219  and  _222
REMARK   83  A    between atoms: _222  and  _223
REMARK   84  A    between atoms: _233  and  _235
REMARK   85  A    between atoms: _235  and  _236
REMARK   86  A    between atoms: _235  and  _238
REMARK   87  A    between atoms: _238  and  _239
REMARK   88  A    between atoms: _242  and  _244
REMARK   89  A    between atoms: _244  and  _245
REMARK   90  A    between atoms: _244  and  _247
REMARK   91  A    between atoms: _247  and  _248
REMARK   92  A    between atoms: _258  and  _260
REMARK   93  A    between atoms: _260  and  _261
REMARK   94  A    between atoms: _260  and  _263
REMARK   95  A    between atoms: _263  and  _264
REMARK   96  A    between atoms: _269  and  _271
REMARK   97  A    between atoms: _271  and  _272
REMARK   98  A    between atoms: _271  and  _274
REMARK   99  A    between atoms: _274  and  _275
REMARK  100  A    between atoms: _278  and  _280
REMARK  101  A    between atoms: _280  and  _281
REMARK  102  A    between atoms: _280  and  _283
REMARK  103  A    between atoms: _283  and  _284
REMARK  104  A    between atoms: _284  and  _285
REMARK  105  A    between atoms: _287  and  _289
REMARK  106  A    between atoms: _289  and  _290
REMARK  107  A    between atoms: _289  and  _292
REMARK  108  A    between atoms: _292  and  _293
REMARK  109  A    between atoms: _298  and  _300
REMARK  110  A    between atoms: _300  and  _301
REMARK  111  A    between atoms: _300  and  _303
REMARK  112  A    between atoms: _303  and  _304
REMARK  113  A    between atoms: _304  and  _305
REMARK  114  A    between atoms: _305  and  _306
REMARK  115  A    between atoms: _315  and  _317
REMARK  116  A    between atoms: _317  and  _318
REMARK  117  A    between atoms: _317  and  _320
REMARK  118  A    between atoms: _320  and  _321
REMARK  119  A    between atoms: _324  and  _326
REMARK  120  A    between atoms: _326  and  _327
REMARK  121  A    between atoms: _330  and  _332
REMARK  122  A    between atoms: _332  and  _333
REMARK  123  A    between atoms: _332  and  _335
REMARK  124  A    between atoms: _335  and  _336
REMARK  125  A    between atoms: _336  and  _337
REMARK  126  A    between atoms: _340  and  _342
REMARK  127  A    between atoms: _342  and  _343
REMARK  128  A    between atoms: _342  and  _345
REMARK  129  A    between atoms: _345  and  _346
REMARK  130  A    between atoms: _351  and  _353
REMARK  131  A    between atoms: _353  and  _354
REMARK  132  A    between atoms: _353  and  _356
REMARK  133  A    between atoms: _356  and  _357
REMARK  134  A    between atoms: _360  and  _362
REMARK  135  A    between atoms: _362  and  _363
REMARK  136  A    between atoms: _362  and  _365
REMARK  137  A    between atoms: _365  and  _366
REMARK  138  A    between atoms: _366  and  _367
REMARK  139  A    between atoms: _367  and  _368
REMARK  140  A    between atoms: _377  and  _379
REMARK  141  A    between atoms: _379  and  _380
REMARK  142  A    between atoms: _382  and  _384
REMARK  143  A    between atoms: _384  and  _385
REMARK  144  A    between atoms: _384  and  _387
REMARK  145  A    between atoms: _387  and  _388
REMARK  146  A    between atoms: _390  and  _392
REMARK  147  A    between atoms: _392  and  _393
REMARK  148  A    between atoms: _392  and  _395
REMARK  149  A    between atoms: _395  and  _396
REMARK  150  A    between atoms: _402  and  _404
REMARK  151  A    between atoms: _404  and  _405
REMARK  152  A    between atoms: _407  and  _409
REMARK  153  A    between atoms: _409  and  _410
REMARK  154  A    between atoms: _409  and  _412
REMARK  155  A    between atoms: _412  and  _413
REMARK  156  A    between atoms: _416  and  _418
REMARK  157  A    between atoms: _418  and  _419
REMARK  158  A    between atoms: _418  and  _421
REMARK  159  A    between atoms: _421  and  _422
REMARK                            x       y       z     vdW  Elec       q    Type
REMARK                         _______ _______ _______ _____ _____    ______ ____
ROOT
ATOM      1  O   HOH     1      -3.273  23.680  17.324  0.00  0.00    +0.000 OA
ENDROOT
TORSDOF 0
REMARK  Name = ../refined-set-2016/2zxd/2zxd_pocket.pdb
REMARK  159 active torsions:
REMARK  status: ('A' for Active; 'I' for Inactive)
REMARK    1  A    between atoms: _1  and  _3
REMARK    2  A    between atoms: _3  and  _4
REMARK    3  A    between atoms: _3  and  _6
REMARK    4  A    between atoms: _6  and  _7
REMARK    5  A    between atoms: _13  and  _15
REMARK    6  A    between atoms: _15  and  _16
REMARK    7  A    between atoms: _15  and  _18
REMARK    8  A    between atoms: _18  and  _19
REMARK    9  A    between atoms: _24  and  _26
REMARK   10  A    between atoms: _26  and  _27
REMARK   11  A    between atoms: _26  and  _29
REMARK   12  A    between atoms: _29  and  _30
REMARK   13  A    between atoms: _35  and  _36
REMARK   14  A    between atoms: _38  and  _40
REMARK   15  A    between atoms: _40  and  _41
REMARK   16  A    between atoms: _40  and  _43
REMARK   17  A    between atoms: _43  and  _44
REMARK   18  A    between atoms: _47  and  _49
REMARK   19  A    between atoms: _49  and  _50
REMARK   20  A    between atoms: _49  and  _52
REMARK   21  A    between atoms: _52  and  _53
REMARK   22  A    between atoms: _63  and  _65
REMARK   23  A    between atoms: _65  and  _66
REMARK   24  A    between atoms: _65  and  _68
REMARK   25  A    between atoms: _68  and  _69
REMARK   26  A    between atoms: _75  and  _77
REMARK   27  A    between atoms: _77  and  _78
REMARK   28  A    between atoms: _77  and  _80
REMARK   29  A    between atoms: _80  and  _81
REMARK   30  A    between atoms: _86  and  _88
REMARK   31  A    between atoms: _88  and  _89
REMARK   32  A    between atoms: _88  and  _91
REMARK   33  A    between atoms: _91  and  _92
REMARK   34  A    between atoms: _97  and  _98
REMARK   35  A    between atoms: _100  and  _102
REMARK   36  A    between atoms: _102  and  _103
REMARK   37  A    between atoms: _106  and  _108
REMARK   38  A    between atoms: _108  and  _109
REMARK   39  A    between atoms: _108  and  _111
REMARK   40  A    between atoms: _111  and  _112
REMARK   41  A    between atoms: _112  and  _113
REMARK   42  A    between atoms: _116  and  _118
REMARK   43  A    between atoms: _118  and  _119
REMARK   44  A    between atoms: _118  and  _121
REMARK   45  A    between atoms: _121  and  _122
REMARK   46  A    between atoms: _132  and  _134
REMARK   47  A    between atoms: _134  and  _135
REMARK   48  A    between atoms: _134  and  _137
REMARK   49  A    between atoms: _137  and  _138
REMARK   50  A    between atoms: _143  and  _144
REMARK   51  A    between atoms: _146  and  _148
REMARK   52  A    between atoms: _148  and  _149
REMARK   53  A    between atoms: _148  and  _151
REMARK   54  A    between atoms: _151  and  _152
REMARK   55  A    between atoms: _155  and  _157
REMARK   56  A    between atoms: _157  and  _158
REMARK   57  A    between atoms: _157  and  _160
REMARK   58  A    between atoms: _160  and  _161
REMARK   59  A    between atoms: _166  and  _168
REMARK   60  A    between atoms: _168  and  _169
REMARK   61  A    between atoms: _168  and  _171
REMARK   62  A    between atoms: _171  and  _172
REMARK   63  A    between atoms: _177  and  _179
REMARK   64  A    between atoms: _179  and  _180
REMARK   65  A    between atoms: _179  and  _182
REMARK   66  A    between atoms: _182  and  _183
REMARK   67  A    between atoms: _186  and  _188
REMARK   68  A    between atoms: _188  and  _189
REMARK   69  A    between atoms: _188  and  _191
REMARK   70  A    between atoms: _191  and  _192
REMARK   71  A    between atoms: _197  and  _198
REMARK   72  A    between atoms: _200  and  _202
REMARK   73  A    between atoms: _202  and  _203
REMARK   74  A    between atoms: _202  and  _205
REMARK   75  A    between atoms: _205  and  _206
REMARK   76  A    between atoms: _208  and  _210
REMARK   77  A    between atoms: _210  and  _211
REMARK   78  A    between atoms: _210  and  _213
REMARK   79  A    between atoms: _213  and  _214
REMARK   80  A    between atoms: _217  and  _219
REMARK   81  A    between atoms: _219  and  _220
REMARK   82  A    between atoms: _219  and  _222
REMARK   83  A    between atoms: _222  and  _223
REMARK   84  A    between atoms: _233  and  _235
REMARK   85  A    between atoms: _235  and  _236
REMARK   86  A    between atoms: _235  and  _238
REMARK   87  A    between atoms: _238  and  _239
REMARK   88  A    between atoms: _242  and  _244
REMARK   89  A    between atoms: _244  and  _245
REMARK   90  A    between atoms: _244  and  _247
REMARK   91  A    between atoms: _247  and  _248
REMARK   92  A    between atoms: _258  and  _260
REMARK   93  A    between atoms: _260  and  _261
REMARK   94  A    between atoms: _260  and  _263
REMARK   95  A    between atoms: _263  and  _264
REMARK   96  A    between atoms: _269  and  _271
REMARK   97  A    between atoms: _271  and  _272
REMARK   98  A    between atoms: _271  and  _274
REMARK   99  A    between atoms: _274  and  _275
REMARK  100  A    between atoms: _278  and  _280
REMARK  101  A    between atoms: _280  and  _281
REMARK  102  A    between atoms: _280  and  _283
REMARK  103  A    between atoms: _283  and  _284
REMARK  104  A    between atoms: _284  and  _285
REMARK  105  A    between atoms: _287  and  _289
REMARK  106  A    between atoms: _289  and  _290
REMARK  107  A    between atoms: _289  and  _292
REMARK  108  A    between atoms: _292  and  _293
REMARK  109  A    between atoms: _298  and  _300
REMARK  110  A    between atoms: _300  and  _301
REMARK  111  A    between atoms: _300  and  _303
REMARK  112  A    between atoms: _303  and  _304
REMARK  113  A    between atoms: _304  and  _305
REMARK  114  A    between atoms: _305  and  _306
REMARK  115  A    between atoms: _315  and  _317
REMARK  116  A    between atoms: _317  and  _318
REMARK  117  A    between atoms: _317  and  _320
REMARK  118  A    between atoms: _320  and  _321
REMARK  119  A    between atoms: _324  and  _326
REMARK  120  A    between atoms: _326  and  _327
REMARK  121  A    between atoms: _330  and  _332
REMARK  122  A    between atoms: _332  and  _333
REMARK  123  A    between atoms: _332  and  _335
REMARK  124  A    between atoms: _335  and  _336
REMARK  125  A    between atoms: _336  and  _337
REMARK  126  A    between atoms: _340  and  _342
REMARK  127  A    between atoms: _342  and  _343
REMARK  128  A    between atoms: _342  and  _345
REMARK  129  A    between atoms: _345  and  _346
REMARK  130  A    between atoms: _351  and  _353
REMARK  131  A    between atoms: _353  and  _354
REMARK  132  A    between atoms: _353  and  _356
REMARK  133  A    between atoms: _356  and  _357
REMARK  134  A    between atoms: _360  and  _362
REMARK  135  A    between atoms: _362  and  _363
REMARK  136  A    between atoms: _362  and  _365
REMARK  137  A    between atoms: _365  and  _366
REMARK  138  A    between atoms: _366  and  _367
REMARK  139  A    between atoms: _367  and  _368
REMARK  140  A    between atoms: _377  and  _379
REMARK  141  A    between atoms: _379  and  _380
REMARK  142  A    between atoms: _382  and  _384
REMARK  143  A    between atoms: _384  and  _385
REMARK  144  A    between atoms: _384  and  _387
REMARK  145  A    between atoms: _387  and  _388
REMARK  146  A    between atoms: _390  and  _392
REMARK  147  A    between atoms: _392  and  _393
REMARK  148  A    between atoms: _392  and  _395
REMARK  149  A    between atoms: _395  and  _396
REMARK  150  A    between atoms: _402  and  _404
REMARK  151  A    between atoms: _404  and  _405
REMARK  152  A    between atoms: _407  and  _409
REMARK  153  A    between atoms: _409  and  _410
REMARK  154  A    between atoms: _409  and  _412
REMARK  155  A    between atoms: _412  and  _413
REMARK  156  A    between atoms: _416  and  _418
REMARK  157  A    between atoms: _418  and  _419
REMARK  158  A    between atoms: _418  and  _421
REMARK  159  A    between atoms: _421  and  _422
REMARK                            x       y       z     vdW  Elec       q    Type
REMARK                         _______ _______ _______ _____ _____    ______ ____
ROOT
ATOM      1  O   HOH     1      -5.471  27.120  26.269  0.00  0.00    +0.000 OA
ENDROOT
TORSDOF 0
REMARK  Name = ../refined-set-2016/2zxd/2zxd_pocket.pdb
REMARK  159 active torsions:
REMARK  status: ('A' for Active; 'I' for Inactive)
REMARK    1  A    between atoms: _1  and  _3
REMARK    2  A    between atoms: _3  and  _4
REMARK    3  A    between atoms: _3  and  _6
REMARK    4  A    between atoms: _6  and  _7
REMARK    5  A    between atoms: _13  and  _15
REMARK    6  A    between atoms: _15  and  _16
REMARK    7  A    between atoms: _15  and  _18
REMARK    8  A    between atoms: _18  and  _19
REMARK    9  A    between atoms: _24  and  _26
REMARK   10  A    between atoms: _26  and  _27
REMARK   11  A    between atoms: _26  and  _29
REMARK   12  A    between atoms: _29  and  _30
REMARK   13  A    between atoms: _35  and  _36
REMARK   14  A    between atoms: _38  and  _40
REMARK   15  A    between atoms: _40  and  _41
REMARK   16  A    between atoms: _40  and  _43
REMARK   17  A    between atoms: _43  and  _44
REMARK   18  A    between atoms: _47  and  _49
REMARK   19  A    between atoms: _49  and  _50
REMARK   20  A    between atoms: _49  and  _52
REMARK   21  A    between atoms: _52  and  _53
REMARK   22  A    between atoms: _63  and  _65
REMARK   23  A    between atoms: _65  and  _66
REMARK   24  A    between atoms: _65  and  _68
REMARK   25  A    between atoms: _68  and  _69
REMARK   26  A    between atoms: _75  and  _77
REMARK   27  A    between atoms: _77  and  _78
REMARK   28  A    between atoms: _77  and  _80
REMARK   29  A    between atoms: _80  and  _81
REMARK   30  A    between atoms: _86  and  _88
REMARK   31  A    between atoms: _88  and  _89
REMARK   32  A    between atoms: _88  and  _91
REMARK   33  A    between atoms: _91  and  _92
REMARK   34  A    between atoms: _97  and  _98
REMARK   35  A    between atoms: _100  and  _102
REMARK   36  A    between atoms: _102  and  _103
REMARK   37  A    between atoms: _106  and  _108
REMARK   38  A    between atoms: _108  and  _109
REMARK   39  A    between atoms: _108  and  _111
REMARK   40  A    between atoms: _111  and  _112
REMARK   41  A    between atoms: _112  and  _113
REMARK   42  A    between atoms: _116  and  _118
REMARK   43  A    between atoms: _118  and  _119
REMARK   44  A    between atoms: _118  and  _121
REMARK   45  A    between atoms: _121  and  _122
REMARK   46  A    between atoms: _132  and  _134
REMARK   47  A    between atoms: _134  and  _135
REMARK   48  A    between atoms: _134  and  _137
REMARK   49  A    between atoms: _137  and  _138
REMARK   50  A    between atoms: _143  and  _144
REMARK   51  A    between atoms: _146  and  _148
REMARK   52  A    between atoms: _148  and  _149
REMARK   53  A    between atoms: _148  and  _151
REMARK   54  A    between atoms: _151  and  _152
REMARK   55  A    between atoms: _155  and  _157
REMARK   56  A    between atoms: _157  and  _158
REMARK   57  A    between atoms: _157  and  _160
REMARK   58  A    between atoms: _160  and  _161
REMARK   59  A    between atoms: _166  and  _168
REMARK   60  A    between atoms: _168  and  _169
REMARK   61  A    between atoms: _168  and  _171
REMARK   62  A    between atoms: _171  and  _172
REMARK   63  A    between atoms: _177  and  _179
REMARK   64  A    between atoms: _179  and  _180
REMARK   65  A    between atoms: _179  and  _182
REMARK   66  A    between atoms: _182  and  _183
REMARK   67  A    between atoms: _186  and  _188
REMARK   68  A    between atoms: _188  and  _189
REMARK   69  A    between atoms: _188  and  _191
REMARK   70  A    between atoms: _191  and  _192
REMARK   71  A    between atoms: _197  and  _198
REMARK   72  A    between atoms: _200  and  _202
REMARK   73  A    between atoms: _202  and  _203
REMARK   74  A    between atoms: _202  and  _205
REMARK   75  A    between atoms: _205  and  _206
REMARK   76  A    between atoms: _208  and  _210
REMARK   77  A    between atoms: _210  and  _211
REMARK   78  A    between atoms: _210  and  _213
REMARK   79  A    between atoms: _213  and  _214
REMARK   80  A    between atoms: _217  and  _219
REMARK   81  A    between atoms: _219  and  _220
REMARK   82  A    between atoms: _219  and  _222
REMARK   83  A    between atoms: _222  and  _223
REMARK   84  A    between atoms: _233  and  _235
REMARK   85  A    between atoms: _235  and  _236
REMARK   86  A    between atoms: _235  and  _238
REMARK   87  A    between atoms: _238  and  _239
REMARK   88  A    between atoms: _242  and  _244
REMARK   89  A    between atoms: _244  and  _245
REMARK   90  A    between atoms: _244  and  _247
REMARK   91  A    between atoms: _247  and  _248
REMARK   92  A    between atoms: _258  and  _260
REMARK   93  A    between atoms: _260  and  _261
REMARK   94  A    between atoms: _260  and  _263
REMARK   95  A    between atoms: _263  and  _264
REMARK   96  A    between atoms: _269  and  _271
REMARK   97  A    between atoms: _271  and  _272
REMARK   98  A    between atoms: _271  and  _274
REMARK   99  A    between atoms: _274  and  _275
REMARK  100  A    between atoms: _278  and  _280
REMARK  101  A    between atoms: _280  and  _281
REMARK  102  A    between atoms: _280  and  _283
REMARK  103  A    between atoms: _283  and  _284
REMARK  104  A    between atoms: _284  and  _285
REMARK  105  A    between atoms: _287  and  _289
REMARK  106  A    between atoms: _289  and  _290
REMARK  107  A    between atoms: _289  and  _292
REMARK  108  A    between atoms: _292  and  _293
REMARK  109  A    between atoms: _298  and  _300
REMARK  110  A    between atoms: _300  and  _301
REMARK  111  A    between atoms: _300  and  _303
REMARK  112  A    between atoms: _303  and  _304
REMARK  113  A    between atoms: _304  and  _305
REMARK  114  A    between atoms: _305  and  _306
REMARK  115  A    between atoms: _315  and  _317
REMARK  116  A    between atoms: _317  and  _318
REMARK  117  A    between atoms: _317  and  _320
REMARK  118  A    between atoms: _320  and  _321
REMARK  119  A    between atoms: _324  and  _326
REMARK  120  A    between atoms: _326  and  _327
REMARK  121  A    between atoms: _330  and  _332
REMARK  122  A    between atoms: _332  and  _333
REMARK  123  A    between atoms: _332  and  _335
REMARK  124  A    between atoms: _335  and  _336
REMARK  125  A    between atoms: _336  and  _337
REMARK  126  A    between atoms: _340  and  _342
REMARK  127  A    between atoms: _342  and  _343
REMARK  128  A    between atoms: _342  and  _345
REMARK  129  A    between atoms: _345  and  _346
REMARK  130  A    between atoms: _351  and  _353
REMARK  131  A    between atoms: _353  and  _354
REMARK  132  A    between atoms: _353  and  _356
REMARK  133  A    between atoms: _356  and  _357
REMARK  134  A    between atoms: _360  and  _362
REMARK  135  A    between atoms: _362  and  _363
REMARK  136  A    between atoms: _362  and  _365
REMARK  137  A    between atoms: _365  and  _366
REMARK  138  A    between atoms: _366  and  _367
REMARK  139  A    between atoms: _367  and  _368
REMARK  140  A    between atoms: _377  and  _379
REMARK  141  A    between atoms: _379  and  _380
REMARK  142  A    between atoms: _382  and  _384
REMARK  143  A    between atoms: _384  and  _385
REMARK  144  A    between atoms: _384  and  _387
REMARK  145  A    between atoms: _387  and  _388
REMARK  146  A    between atoms: _390  and  _392
REMARK  147  A    between atoms: _392  and  _393
REMARK  148  A    between atoms: _392  and  _395
REMARK  149  A    between atoms: _395  and  _396
REMARK  150  A    between atoms: _402  and  _404
REMARK  151  A    between atoms: _404  and  _405
REMARK  152  A    between atoms: _407  and  _409
REMARK  153  A    between atoms: _409  and  _410
REMARK  154  A    between atoms: _409  and  _412
REMARK  155  A    between atoms: _412  and  _413
REMARK  156  A    between atoms: _416  and  _418
REMARK  157  A    between atoms: _418  and  _419
REMARK  158  A    between atoms: _418  and  _421
REMARK  159  A    between atoms: _421  and  _422
REMARK                            x       y       z     vdW  Elec       q    Type
REMARK                         _______ _______ _______ _____ _____    ______ ____
ROOT
ATOM      1  O   HOH     1      -6.796  26.642  28.662  0.00  0.00    +0.000 OA
ENDROOT
TORSDOF 0
REMARK  Name = ../refined-set-2016/2zxd/2zxd_pocket.pdb
REMARK  159 active torsions:
REMARK  status: ('A' for Active; 'I' for Inactive)
REMARK    1  A    between atoms: _1  and  _3
REMARK    2  A    between atoms: _3  and  _4
REMARK    3  A    between atoms: _3  and  _6
REMARK    4  A    between atoms: _6  and  _7
REMARK    5  A    between atoms: _13  and  _15
REMARK    6  A    between atoms: _15  and  _16
REMARK    7  A    between atoms: _15  and  _18
REMARK    8  A    between atoms: _18  and  _19
REMARK    9  A    between atoms: _24  and  _26
REMARK   10  A    between atoms: _26  and  _27
REMARK   11  A    between atoms: _26  and  _29
REMARK   12  A    between atoms: _29  and  _30
REMARK   13  A    between atoms: _35  and  _36
REMARK   14  A    between atoms: _38  and  _40
REMARK   15  A    between atoms: _40  and  _41
REMARK   16  A    between atoms: _40  and  _43
REMARK   17  A    between atoms: _43  and  _44
REMARK   18  A    between atoms: _47  and  _49
REMARK   19  A    between atoms: _49  and  _50
REMARK   20  A    between atoms: _49  and  _52
REMARK   21  A    between atoms: _52  and  _53
REMARK   22  A    between atoms: _63  and  _65
REMARK   23  A    between atoms: _65  and  _66
REMARK   24  A    between atoms: _65  and  _68
REMARK   25  A    between atoms: _68  and  _69
REMARK   26  A    between atoms: _75  and  _77
REMARK   27  A    between atoms: _77  and  _78
REMARK   28  A    between atoms: _77  and  _80
REMARK   29  A    between atoms: _80  and  _81
REMARK   30  A    between atoms: _86  and  _88
REMARK   31  A    between atoms: _88  and  _89
REMARK   32  A    between atoms: _88  and  _91
REMARK   33  A    between atoms: _91  and  _92
REMARK   34  A    between atoms: _97  and  _98
REMARK   35  A    between atoms: _100  and  _102
REMARK   36  A    between atoms: _102  and  _103
REMARK   37  A    between atoms: _106  and  _108
REMARK   38  A    between atoms: _108  and  _109
REMARK   39  A    between atoms: _108  and  _111
REMARK   40  A    between atoms: _111  and  _112
REMARK   41  A    between atoms: _112  and  _113
REMARK   42  A    between atoms: _116  and  _118
REMARK   43  A    between atoms: _118  and  _119
REMARK   44  A    between atoms: _118  and  _121
REMARK   45  A    between atoms: _121  and  _122
REMARK   46  A    between atoms: _132  and  _134
REMARK   47  A    between atoms: _134  and  _135
REMARK   48  A    between atoms: _134  and  _137
REMARK   49  A    between atoms: _137  and  _138
REMARK   50  A    between atoms: _143  and  _144
REMARK   51  A    between atoms: _146  and  _148
REMARK   52  A    between atoms: _148  and  _149
REMARK   53  A    between atoms: _148  and  _151
REMARK   54  A    between atoms: _151  and  _152
REMARK   55  A    between atoms: _155  and  _157
REMARK   56  A    between atoms: _157  and  _158
REMARK   57  A    between atoms: _157  and  _160
REMARK   58  A    between atoms: _160  and  _161
REMARK   59  A    between atoms: _166  and  _168
REMARK   60  A    between atoms: _168  and  _169
REMARK   61  A    between atoms: _168  and  _171
REMARK   62  A    between atoms: _171  and  _172
REMARK   63  A    between atoms: _177  and  _179
REMARK   64  A    between atoms: _179  and  _180
REMARK   65  A    between atoms: _179  and  _182
REMARK   66  A    between atoms: _182  and  _183
REMARK   67  A    between atoms: _186  and  _188
REMARK   68  A    between atoms: _188  and  _189
REMARK   69  A    between atoms: _188  and  _191
REMARK   70  A    between atoms: _191  and  _192
REMARK   71  A    between atoms: _197  and  _198
REMARK   72  A    between atoms: _200  and  _202
REMARK   73  A    between atoms: _202  and  _203
REMARK   74  A    between atoms: _202  and  _205
REMARK   75  A    between atoms: _205  and  _206
REMARK   76  A    between atoms: _208  and  _210
REMARK   77  A    between atoms: _210  and  _211
REMARK   78  A    between atoms: _210  and  _213
REMARK   79  A    between atoms: _213  and  _214
REMARK   80  A    between atoms: _217  and  _219
REMARK   81  A    between atoms: _219  and  _220
REMARK   82  A    between atoms: _219  and  _222
REMARK   83  A    between atoms: _222  and  _223
REMARK   84  A    between atoms: _233  and  _235
REMARK   85  A    between atoms: _235  and  _236
REMARK   86  A    between atoms: _235  and  _238
REMARK   87  A    between atoms: _238  and  _239
REMARK   88  A    between atoms: _242  and  _244
REMARK   89  A    between atoms: _244  and  _245
REMARK   90  A    between atoms: _244  and  _247
REMARK   91  A    between atoms: _247  and  _248
REMARK   92  A    between atoms: _258  and  _260
REMARK   93  A    between atoms: _260  and  _261
REMARK   94  A    between atoms: _260  and  _263
REMARK   95  A    between atoms: _263  and  _264
REMARK   96  A    between atoms: _269  and  _271
REMARK   97  A    between atoms: _271  and  _272
REMARK   98  A    between atoms: _271  and  _274
REMARK   99  A    between atoms: _274  and  _275
REMARK  100  A    between atoms: _278  and  _280
REMARK  101  A    between atoms: _280  and  _281
REMARK  102  A    between atoms: _280  and  _283
REMARK  103  A    between atoms: _283  and  _284
REMARK  104  A    between atoms: _284  and  _285
REMARK  105  A    between atoms: _287  and  _289
REMARK  106  A    between atoms: _289  and  _290
REMARK  107  A    between atoms: _289  and  _292
REMARK  108  A    between atoms: _292  and  _293
REMARK  109  A    between atoms: _298  and  _300
REMARK  110  A    between atoms: _300  and  _301
REMARK  111  A    between atoms: _300  and  _303
REMARK  112  A    between atoms: _303  and  _304
REMARK  113  A    between atoms: _304  and  _305
REMARK  114  A    between atoms: _305  and  _306
REMARK  115  A    between atoms: _315  and  _317
REMARK  116  A    between atoms: _317  and  _318
REMARK  117  A    between atoms: _317  and  _320
REMARK  118  A    between atoms: _320  and  _321
REMARK  119  A    between atoms: _324  and  _326
REMARK  120  A    between atoms: _326  and  _327
REMARK  121  A    between atoms: _330  and  _332
REMARK  122  A    between atoms: _332  and  _333
REMARK  123  A    between atoms: _332  and  _335
REMARK  124  A    between atoms: _335  and  _336
REMARK  125  A    between atoms: _336  and  _337
REMARK  126  A    between atoms: _340  and  _342
REMARK  127  A    between atoms: _342  and  _343
REMARK  128  A    between atoms: _342  and  _345
REMARK  129  A    between atoms: _345  and  _346
REMARK  130  A    between atoms: _351  and  _353
REMARK  131  A    between atoms: _353  and  _354
REMARK  132  A    between atoms: _353  and  _356
REMARK  133  A    between atoms: _356  and  _357
REMARK  134  A    between atoms: _360  and  _362
REMARK  135  A    between atoms: _362  and  _363
REMARK  136  A    between atoms: _362  and  _365
REMARK  137  A    between atoms: _365  and  _366
REMARK  138  A    between atoms: _366  and  _367
REMARK  139  A    between atoms: _367  and  _368
REMARK  140  A    between atoms: _377  and  _379
REMARK  141  A    between atoms: _379  and  _380
REMARK  142  A    between atoms: _382  and  _384
REMARK  143  A    between atoms: _384  and  _385
REMARK  144  A    between atoms: _384  and  _387
REMARK  145  A    between atoms: _387  and  _388
REMARK  146  A    between atoms: _390  and  _392
REMARK  147  A    between atoms: _392  and  _393
REMARK  148  A    between atoms: _392  and  _395
REMARK  149  A    between atoms: _395  and  _396
REMARK  150  A    between atoms: _402  and  _404
REMARK  151  A    between atoms: _404  and  _405
REMARK  152  A    between atoms: _407  and  _409
REMARK  153  A    between atoms: _409  and  _410
REMARK  154  A    between atoms: _409  and  _412
REMARK  155  A    between atoms: _412  and  _413
REMARK  156  A    between atoms: _416  and  _418
REMARK  157  A    between atoms: _418  and  _419
REMARK  158  A    between atoms: _418  and  _421
REMARK  159  A    between atoms: _421  and  _422
REMARK                            x       y       z     vdW  Elec       q    Type
REMARK                         _______ _______ _______ _____ _____    ______ ____
ROOT
ATOM      1  O   HOH     1      -7.565  28.386  24.639  0.00  0.00    +0.000 OA
ENDROOT
TORSDOF 0
REMARK  Name = ../refined-set-2016/2zxd/2zxd_pocket.pdb
REMARK  159 active torsions:
REMARK  status: ('A' for Active; 'I' for Inactive)
REMARK    1  A    between atoms: _1  and  _3
REMARK    2  A    between atoms: _3  and  _4
REMARK    3  A    between atoms: _3  and  _6
REMARK    4  A    between atoms: _6  and  _7
REMARK    5  A    between atoms: _13  and  _15
REMARK    6  A    between atoms: _15  and  _16
REMARK    7  A    between atoms: _15  and  _18
REMARK    8  A    between atoms: _18  and  _19
REMARK    9  A    between atoms: _24  and  _26
REMARK   10  A    between atoms: _26  and  _27
REMARK   11  A    between atoms: _26  and  _29
REMARK   12  A    between atoms: _29  and  _30
REMARK   13  A    between atoms: _35  and  _36
REMARK   14  A    between atoms: _38  and  _40
REMARK   15  A    between atoms: _40  and  _41
REMARK   16  A    between atoms: _40  and  _43
REMARK   17  A    between atoms: _43  and  _44
REMARK   18  A    between atoms: _47  and  _49
REMARK   19  A    between atoms: _49  and  _50
REMARK   20  A    between atoms: _49  and  _52
REMARK   21  A    between atoms: _52  and  _53
REMARK   22  A    between atoms: _63  and  _65
REMARK   23  A    between atoms: _65  and  _66
REMARK   24  A    between atoms: _65  and  _68
REMARK   25  A    between atoms: _68  and  _69
REMARK   26  A    between atoms: _75  and  _77
REMARK   27  A    between atoms: _77  and  _78
REMARK   28  A    between atoms: _77  and  _80
REMARK   29  A    between atoms: _80  and  _81
REMARK   30  A    between atoms: _86  and  _88
REMARK   31  A    between atoms: _88  and  _89
REMARK   32  A    between atoms: _88  and  _91
REMARK   33  A    between atoms: _91  and  _92
REMARK   34  A    between atoms: _97  and  _98
REMARK   35  A    between atoms: _100  and  _102
REMARK   36  A    between atoms: _102  and  _103
REMARK   37  A    between atoms: _106  and  _108
REMARK   38  A    between atoms: _108  and  _109
REMARK   39  A    between atoms: _108  and  _111
REMARK   40  A    between atoms: _111  and  _112
REMARK   41  A    between atoms: _112  and  _113
REMARK   42  A    between atoms: _116  and  _118
REMARK   43  A    between atoms: _118  and  _119
REMARK   44  A    between atoms: _118  and  _121
REMARK   45  A    between atoms: _121  and  _122
REMARK   46  A    between atoms: _132  and  _134
REMARK   47  A    between atoms: _134  and  _135
REMARK   48  A    between atoms: _134  and  _137
REMARK   49  A    between atoms: _137  and  _138
REMARK   50  A    between atoms: _143  and  _144
REMARK   51  A    between atoms: _146  and  _148
REMARK   52  A    between atoms: _148  and  _149
REMARK   53  A    between atoms: _148  and  _151
REMARK   54  A    between atoms: _151  and  _152
REMARK   55  A    between atoms: _155  and  _157
REMARK   56  A    between atoms: _157  and  _158
REMARK   57  A    between atoms: _157  and  _160
REMARK   58  A    between atoms: _160  and  _161
REMARK   59  A    between atoms: _166  and  _168
REMARK   60  A    between atoms: _168  and  _169
REMARK   61  A    between atoms: _168  and  _171
REMARK   62  A    between atoms: _171  and  _172
REMARK   63  A    between atoms: _177  and  _179
REMARK   64  A    between atoms: _179  and  _180
REMARK   65  A    between atoms: _179  and  _182
REMARK   66  A    between atoms: _182  and  _183
REMARK   67  A    between atoms: _186  and  _188
REMARK   68  A    between atoms: _188  and  _189
REMARK   69  A    between atoms: _188  and  _191
REMARK   70  A    between atoms: _191  and  _192
REMARK   71  A    between atoms: _197  and  _198
REMARK   72  A    between atoms: _200  and  _202
REMARK   73  A    between atoms: _202  and  _203
REMARK   74  A    between atoms: _202  and  _205
REMARK   75  A    between atoms: _205  and  _206
REMARK   76  A    between atoms: _208  and  _210
REMARK   77  A    between atoms: _210  and  _211
REMARK   78  A    between atoms: _210  and  _213
REMARK   79  A    between atoms: _213  and  _214
REMARK   80  A    between atoms: _217  and  _219
REMARK   81  A    between atoms: _219  and  _220
REMARK   82  A    between atoms: _219  and  _222
REMARK   83  A    between atoms: _222  and  _223
REMARK   84  A    between atoms: _233  and  _235
REMARK   85  A    between atoms: _235  and  _236
REMARK   86  A    between atoms: _235  and  _238
REMARK   87  A    between atoms: _238  and  _239
REMARK   88  A    between atoms: _242  and  _244
REMARK   89  A    between atoms: _244  and  _245
REMARK   90  A    between atoms: _244  and  _247
REMARK   91  A    between atoms: _247  and  _248
REMARK   92  A    between atoms: _258  and  _260
REMARK   93  A    between atoms: _260  and  _261
REMARK   94  A    between atoms: _260  and  _263
REMARK   95  A    between atoms: _263  and  _264
REMARK   96  A    between atoms: _269  and  _271
REMARK   97  A    between atoms: _271  and  _272
REMARK   98  A    between atoms: _271  and  _274
REMARK   99  A    between atoms: _274  and  _275
REMARK  100  A    between atoms: _278  and  _280
REMARK  101  A    between atoms: _280  and  _281
REMARK  102  A    between atoms: _280  and  _283
REMARK  103  A    between atoms: _283  and  _284
REMARK  104  A    between atoms: _284  and  _285
REMARK  105  A    between atoms: _287  and  _289
REMARK  106  A    between atoms: _289  and  _290
REMARK  107  A    between atoms: _289  and  _292
REMARK  108  A    between atoms: _292  and  _293
REMARK  109  A    between atoms: _298  and  _300
REMARK  110  A    between atoms: _300  and  _301
REMARK  111  A    between atoms: _300  and  _303
REMARK  112  A    between atoms: _303  and  _304
REMARK  113  A    between atoms: _304  and  _305
REMARK  114  A    between atoms: _305  and  _306
REMARK  115  A    between atoms: _315  and  _317
REMARK  116  A    between atoms: _317  and  _318
REMARK  117  A    between atoms: _317  and  _320
REMARK  118  A    between atoms: _320  and  _321
REMARK  119  A    between atoms: _324  and  _326
REMARK  120  A    between atoms: _326  and  _327
REMARK  121  A    between atoms: _330  and  _332
REMARK  122  A    between atoms: _332  and  _333
REMARK  123  A    between atoms: _332  and  _335
REMARK  124  A    between atoms: _335  and  _336
REMARK  125  A    between atoms: _336  and  _337
REMARK  126  A    between atoms: _340  and  _342
REMARK  127  A    between atoms: _342  and  _343
REMARK  128  A    between atoms: _342  and  _345
REMARK  129  A    between atoms: _345  and  _346
REMARK  130  A    between atoms: _351  and  _353
REMARK  131  A    between atoms: _353  and  _354
REMARK  132  A    between atoms: _353  and  _356
REMARK  133  A    between atoms: _356  and  _357
REMARK  134  A    between atoms: _360  and  _362
REMARK  135  A    between atoms: _362  and  _363
REMARK  136  A    between atoms: _362  and  _365
REMARK  137  A    between atoms: _365  and  _366
REMARK  138  A    between atoms: _366  and  _367
REMARK  139  A    between atoms: _367  and  _368
REMARK  140  A    between atoms: _377  and  _379
REMARK  141  A    between atoms: _379  and  _380
REMARK  142  A    between atoms: _382  and  _384
REMARK  143  A    between atoms: _384  and  _385
REMARK  144  A    between atoms: _384  and  _387
REMARK  145  A    between atoms: _387  and  _388
REMARK  146  A    between atoms: _390  and  _392
REMARK  147  A    between atoms: _392  and  _393
REMARK  148  A    between atoms: _392  and  _395
REMARK  149  A    between atoms: _395  and  _396
REMARK  150  A    between atoms: _402  and  _404
REMARK  151  A    between atoms: _404  and  _405
REMARK  152  A    between atoms: _407  and  _409
REMARK  153  A    between atoms: _409  and  _410
REMARK  154  A    between atoms: _409  and  _412
REMARK  155  A    between atoms: _412  and  _413
REMARK  156  A    between atoms: _416  and  _418
REMARK  157  A    between atoms: _418  and  _419
REMARK  158  A    between atoms: _418  and  _421
REMARK  159  A    between atoms: _421  and  _422
REMARK                            x       y       z     vdW  Elec       q    Type
REMARK                         _______ _______ _______ _____ _____    ______ ____
ROOT
ATOM      1  O   HOH     1       0.242  22.677  31.126  0.00  0.00    +0.000 OA
ENDROOT
TORSDOF 0
REMARK  Name = ../refined-set-2016/2zxd/2zxd_pocket.pdb
REMARK  159 active torsions:
REMARK  status: ('A' for Active; 'I' for Inactive)
REMARK    1  A    between atoms: _1  and  _3
REMARK    2  A    between atoms: _3  and  _4
REMARK    3  A    between atoms: _3  and  _6
REMARK    4  A    between atoms: _6  and  _7
REMARK    5  A    between atoms: _13  and  _15
REMARK    6  A    between atoms: _15  and  _16
REMARK    7  A    between atoms: _15  and  _18
REMARK    8  A    between atoms: _18  and  _19
REMARK    9  A    between atoms: _24  and  _26
REMARK   10  A    between atoms: _26  and  _27
REMARK   11  A    between atoms: _26  and  _29
REMARK   12  A    between atoms: _29  and  _30
REMARK   13  A    between atoms: _35  and  _36
REMARK   14  A    between atoms: _38  and  _40
REMARK   15  A    between atoms: _40  and  _41
REMARK   16  A    between atoms: _40  and  _43
REMARK   17  A    between atoms: _43  and  _44
REMARK   18  A    between atoms: _47  and  _49
REMARK   19  A    between atoms: _49  and  _50
REMARK   20  A    between atoms: _49  and  _52
REMARK   21  A    between atoms: _52  and  _53
REMARK   22  A    between atoms: _63  and  _65
REMARK   23  A    between atoms: _65  and  _66
REMARK   24  A    between atoms: _65  and  _68
REMARK   25  A    between atoms: _68  and  _69
REMARK   26  A    between atoms: _75  and  _77
REMARK   27  A    between atoms: _77  and  _78
REMARK   28  A    between atoms: _77  and  _80
REMARK   29  A    between atoms: _80  and  _81
REMARK   30  A    between atoms: _86  and  _88
REMARK   31  A    between atoms: _88  and  _89
REMARK   32  A    between atoms: _88  and  _91
REMARK   33  A    between atoms: _91  and  _92
REMARK   34  A    between atoms: _97  and  _98
REMARK   35  A    between atoms: _100  and  _102
REMARK   36  A    between atoms: _102  and  _103
REMARK   37  A    between atoms: _106  and  _108
REMARK   38  A    between atoms: _108  and  _109
REMARK   39  A    between atoms: _108  and  _111
REMARK   40  A    between atoms: _111  and  _112
REMARK   41  A    between atoms: _112  and  _113
REMARK   42  A    between atoms: _116  and  _118
REMARK   43  A    between atoms: _118  and  _119
REMARK   44  A    between atoms: _118  and  _121
REMARK   45  A    between atoms: _121  and  _122
REMARK   46  A    between atoms: _132  and  _134
REMARK   47  A    between atoms: _134  and  _135
REMARK   48  A    between atoms: _134  and  _137
REMARK   49  A    between atoms: _137  and  _138
REMARK   50  A    between atoms: _143  and  _144
REMARK   51  A    between atoms: _146  and  _148
REMARK   52  A    between atoms: _148  and  _149
REMARK   53  A    between atoms: _148  and  _151
REMARK   54  A    between atoms: _151  and  _152
REMARK   55  A    between atoms: _155  and  _157
REMARK   56  A    between atoms: _157  and  _158
REMARK   57  A    between atoms: _157  and  _160
REMARK   58  A    between atoms: _160  and  _161
REMARK   59  A    between atoms: _166  and  _168
REMARK   60  A    between atoms: _168  and  _169
REMARK   61  A    between atoms: _168  and  _171
REMARK   62  A    between atoms: _171  and  _172
REMARK   63  A    between atoms: _177  and  _179
REMARK   64  A    between atoms: _179  and  _180
REMARK   65  A    between atoms: _179  and  _182
REMARK   66  A    between atoms: _182  and  _183
REMARK   67  A    between atoms: _186  and  _188
REMARK   68  A    between atoms: _188  and  _189
REMARK   69  A    between atoms: _188  and  _191
REMARK   70  A    between atoms: _191  and  _192
REMARK   71  A    between atoms: _197  and  _198
REMARK   72  A    between atoms: _200  and  _202
REMARK   73  A    between atoms: _202  and  _203
REMARK   74  A    between atoms: _202  and  _205
REMARK   75  A    between atoms: _205  and  _206
REMARK   76  A    between atoms: _208  and  _210
REMARK   77  A    between atoms: _210  and  _211
REMARK   78  A    between atoms: _210  and  _213
REMARK   79  A    between atoms: _213  and  _214
REMARK   80  A    between atoms: _217  and  _219
REMARK   81  A    between atoms: _219  and  _220
REMARK   82  A    between atoms: _219  and  _222
REMARK   83  A    between atoms: _222  and  _223
REMARK   84  A    between atoms: _233  and  _235
REMARK   85  A    between atoms: _235  and  _236
REMARK   86  A    between atoms: _235  and  _238
REMARK   87  A    between atoms: _238  and  _239
REMARK   88  A    between atoms: _242  and  _244
REMARK   89  A    between atoms: _244  and  _245
REMARK   90  A    between atoms: _244  and  _247
REMARK   91  A    between atoms: _247  and  _248
REMARK   92  A    between atoms: _258  and  _260
REMARK   93  A    between atoms: _260  and  _261
REMARK   94  A    between atoms: _260  and  _263
REMARK   95  A    between atoms: _263  and  _264
REMARK   96  A    between atoms: _269  and  _271
REMARK   97  A    between atoms: _271  and  _272
REMARK   98  A    between atoms: _271  and  _274
REMARK   99  A    between atoms: _274  and  _275
REMARK  100  A    between atoms: _278  and  _280
REMARK  101  A    between atoms: _280  and  _281
REMARK  102  A    between atoms: _280  and  _283
REMARK  103  A    between atoms: _283  and  _284
REMARK  104  A    between atoms: _284  and  _285
REMARK  105  A    between atoms: _287  and  _289
REMARK  106  A    between atoms: _289  and  _290
REMARK  107  A    between atoms: _289  and  _292
REMARK  108  A    between atoms: _292  and  _293
REMARK  109  A    between atoms: _298  and  _300
REMARK  110  A    between atoms: _300  and  _301
REMARK  111  A    between atoms: _300  and  _303
REMARK  112  A    between atoms: _303  and  _304
REMARK  113  A    between atoms: _304  and  _305
REMARK  114  A    between atoms: _305  and  _306
REMARK  115  A    between atoms: _315  and  _317
REMARK  116  A    between atoms: _317  and  _318
REMARK  117  A    between atoms: _317  and  _320
REMARK  118  A    between atoms: _320  and  _321
REMARK  119  A    between atoms: _324  and  _326
REMARK  120  A    between atoms: _326  and  _327
REMARK  121  A    between atoms: _330  and  _332
REMARK  122  A    between atoms: _332  and  _333
REMARK  123  A    between atoms: _332  and  _335
REMARK  124  A    between atoms: _335  and  _336
REMARK  125  A    between atoms: _336  and  _337
REMARK  126  A    between atoms: _340  and  _342
REMARK  127  A    between atoms: _342  and  _343
REMARK  128  A    between atoms: _342  and  _345
REMARK  129  A    between atoms: _345  and  _346
REMARK  130  A    between atoms: _351  and  _353
REMARK  131  A    between atoms: _353  and  _354
REMARK  132  A    between atoms: _353  and  _356
REMARK  133  A    between atoms: _356  and  _357
REMARK  134  A    between atoms: _360  and  _362
REMARK  135  A    between atoms: _362  and  _363
REMARK  136  A    between atoms: _362  and  _365
REMARK  137  A    between atoms: _365  and  _366
REMARK  138  A    between atoms: _366  and  _367
REMARK  139  A    between atoms: _367  and  _368
REMARK  140  A    between atoms: _377  and  _379
REMARK  141  A    between atoms: _379  and  _380
REMARK  142  A    between atoms: _382  and  _384
REMARK  143  A    between atoms: _384  and  _385
REMARK  144  A    between atoms: _384  and  _387
REMARK  145  A    between atoms: _387  and  _388
REMARK  146  A    between atoms: _390  and  _392
REMARK  147  A    between atoms: _392  and  _393
REMARK  148  A    between atoms: _392  and  _395
REMARK  149  A    between atoms: _395  and  _396
REMARK  150  A    between atoms: _402  and  _404
REMARK  151  A    between atoms: _404  and  _405
REMARK  152  A    between atoms: _407  and  _409
REMARK  153  A    between atoms: _409  and  _410
REMARK  154  A    between atoms: _409  and  _412
REMARK  155  A    between atoms: _412  and  _413
REMARK  156  A    between atoms: _416  and  _418
REMARK  157  A    between atoms: _418  and  _419
REMARK  158  A    between atoms: _418  and  _421
REMARK  159  A    between atoms: _421  and  _422
REMARK                            x       y       z     vdW  Elec       q    Type
REMARK                         _______ _______ _______ _____ _____    ______ ____
ROOT
ATOM      1  O   HOH     1       2.336  27.016  34.190  0.00  0.00    +0.000 OA
ENDROOT
TORSDOF 0
REMARK  Name = ../refined-set-2016/2zxd/2zxd_pocket.pdb
REMARK  159 active torsions:
REMARK  status: ('A' for Active; 'I' for Inactive)
REMARK    1  A    between atoms: _1  and  _3
REMARK    2  A    between atoms: _3  and  _4
REMARK    3  A    between atoms: _3  and  _6
REMARK    4  A    between atoms: _6  and  _7
REMARK    5  A    between atoms: _13  and  _15
REMARK    6  A    between atoms: _15  and  _16
REMARK    7  A    between atoms: _15  and  _18
REMARK    8  A    between atoms: _18  and  _19
REMARK    9  A    between atoms: _24  and  _26
REMARK   10  A    between atoms: _26  and  _27
REMARK   11  A    between atoms: _26  and  _29
REMARK   12  A    between atoms: _29  and  _30
REMARK   13  A    between atoms: _35  and  _36
REMARK   14  A    between atoms: _38  and  _40
REMARK   15  A    between atoms: _40  and  _41
REMARK   16  A    between atoms: _40  and  _43
REMARK   17  A    between atoms: _43  and  _44
REMARK   18  A    between atoms: _47  and  _49
REMARK   19  A    between atoms: _49  and  _50
REMARK   20  A    between atoms: _49  and  _52
REMARK   21  A    between atoms: _52  and  _53
REMARK   22  A    between atoms: _63  and  _65
REMARK   23  A    between atoms: _65  and  _66
REMARK   24  A    between atoms: _65  and  _68
REMARK   25  A    between atoms: _68  and  _69
REMARK   26  A    between atoms: _75  and  _77
REMARK   27  A    between atoms: _77  and  _78
REMARK   28  A    between atoms: _77  and  _80
REMARK   29  A    between atoms: _80  and  _81
REMARK   30  A    between atoms: _86  and  _88
REMARK   31  A    between atoms: _88  and  _89
REMARK   32  A    between atoms: _88  and  _91
REMARK   33  A    between atoms: _91  and  _92
REMARK   34  A    between atoms: _97  and  _98
REMARK   35  A    between atoms: _100  and  _102
REMARK   36  A    between atoms: _102  and  _103
REMARK   37  A    between atoms: _106  and  _108
REMARK   38  A    between atoms: _108  and  _109
REMARK   39  A    between atoms: _108  and  _111
REMARK   40  A    between atoms: _111  and  _112
REMARK   41  A    between atoms: _112  and  _113
REMARK   42  A    between atoms: _116  and  _118
REMARK   43  A    between atoms: _118  and  _119
REMARK   44  A    between atoms: _118  and  _121
REMARK   45  A    between atoms: _121  and  _122
REMARK   46  A    between atoms: _132  and  _134
REMARK   47  A    between atoms: _134  and  _135
REMARK   48  A    between atoms: _134  and  _137
REMARK   49  A    between atoms: _137  and  _138
REMARK   50  A    between atoms: _143  and  _144
REMARK   51  A    between atoms: _146  and  _148
REMARK   52  A    between atoms: _148  and  _149
REMARK   53  A    between atoms: _148  and  _151
REMARK   54  A    between atoms: _151  and  _152
REMARK   55  A    between atoms: _155  and  _157
REMARK   56  A    between atoms: _157  and  _158
REMARK   57  A    between atoms: _157  and  _160
REMARK   58  A    between atoms: _160  and  _161
REMARK   59  A    between atoms: _166  and  _168
REMARK   60  A    between atoms: _168  and  _169
REMARK   61  A    between atoms: _168  and  _171
REMARK   62  A    between atoms: _171  and  _172
REMARK   63  A    between atoms: _177  and  _179
REMARK   64  A    between atoms: _179  and  _180
REMARK   65  A    between atoms: _179  and  _182
REMARK   66  A    between atoms: _182  and  _183
REMARK   67  A    between atoms: _186  and  _188
REMARK   68  A    between atoms: _188  and  _189
REMARK   69  A    between atoms: _188  and  _191
REMARK   70  A    between atoms: _191  and  _192
REMARK   71  A    between atoms: _197  and  _198
REMARK   72  A    between atoms: _200  and  _202
REMARK   73  A    between atoms: _202  and  _203
REMARK   74  A    between atoms: _202  and  _205
REMARK   75  A    between atoms: _205  and  _206
REMARK   76  A    between atoms: _208  and  _210
REMARK   77  A    between atoms: _210  and  _211
REMARK   78  A    between atoms: _210  and  _213
REMARK   79  A    between atoms: _213  and  _214
REMARK   80  A    between atoms: _217  and  _219
REMARK   81  A    between atoms: _219  and  _220
REMARK   82  A    between atoms: _219  and  _222
REMARK   83  A    between atoms: _222  and  _223
REMARK   84  A    between atoms: _233  and  _235
REMARK   85  A    between atoms: _235  and  _236
REMARK   86  A    between atoms: _235  and  _238
REMARK   87  A    between atoms: _238  and  _239
REMARK   88  A    between atoms: _242  and  _244
REMARK   89  A    between atoms: _244  and  _245
REMARK   90  A    between atoms: _244  and  _247
REMARK   91  A    between atoms: _247  and  _248
REMARK   92  A    between atoms: _258  and  _260
REMARK   93  A    between atoms: _260  and  _261
REMARK   94  A    between atoms: _260  and  _263
REMARK   95  A    between atoms: _263  and  _264
REMARK   96  A    between atoms: _269  and  _271
REMARK   97  A    between atoms: _271  and  _272
REMARK   98  A    between atoms: _271  and  _274
REMARK   99  A    between atoms: _274  and  _275
REMARK  100  A    between atoms: _278  and  _280
REMARK  101  A    between atoms: _280  and  _281
REMARK  102  A    between atoms: _280  and  _283
REMARK  103  A    between atoms: _283  and  _284
REMARK  104  A    between atoms: _284  and  _285
REMARK  105  A    between atoms: _287  and  _289
REMARK  106  A    between atoms: _289  and  _290
REMARK  107  A    between atoms: _289  and  _292
REMARK  108  A    between atoms: _292  and  _293
REMARK  109  A    between atoms: _298  and  _300
REMARK  110  A    between atoms: _300  and  _301
REMARK  111  A    between atoms: _300  and  _303
REMARK  112  A    between atoms: _303  and  _304
REMARK  113  A    between atoms: _304  and  _305
REMARK  114  A    between atoms: _305  and  _306
REMARK  115  A    between atoms: _315  and  _317
REMARK  116  A    between atoms: _317  and  _318
REMARK  117  A    between atoms: _317  and  _320
REMARK  118  A    between atoms: _320  and  _321
REMARK  119  A    between atoms: _324  and  _326
REMARK  120  A    between atoms: _326  and  _327
REMARK  121  A    between atoms: _330  and  _332
REMARK  122  A    between atoms: _332  and  _333
REMARK  123  A    between atoms: _332  and  _335
REMARK  124  A    between atoms: _335  and  _336
REMARK  125  A    between atoms: _336  and  _337
REMARK  126  A    between atoms: _340  and  _342
REMARK  127  A    between atoms: _342  and  _343
REMARK  128  A    between atoms: _342  and  _345
REMARK  129  A    between atoms: _345  and  _346
REMARK  130  A    between atoms: _351  and  _353
REMARK  131  A    between atoms: _353  and  _354
REMARK  132  A    between atoms: _353  and  _356
REMARK  133  A    between atoms: _356  and  _357
REMARK  134  A    between atoms: _360  and  _362
REMARK  135  A    between atoms: _362  and  _363
REMARK  136  A    between atoms: _362  and  _365
REMARK  137  A    between atoms: _365  and  _366
REMARK  138  A    between atoms: _366  and  _367
REMARK  139  A    between atoms: _367  and  _368
REMARK  140  A    between atoms: _377  and  _379
REMARK  141  A    between atoms: _379  and  _380
REMARK  142  A    between atoms: _382  and  _384
REMARK  143  A    between atoms: _384  and  _385
REMARK  144  A    between atoms: _384  and  _387
REMARK  145  A    between atoms: _387  and  _388
REMARK  146  A    between atoms: _390  and  _392
REMARK  147  A    between atoms: _392  and  _393
REMARK  148  A    between atoms: _392  and  _395
REMARK  149  A    between atoms: _395  and  _396
REMARK  150  A    between atoms: _402  and  _404
REMARK  151  A    between atoms: _404  and  _405
REMARK  152  A    between atoms: _407  and  _409
REMARK  153  A    between atoms: _409  and  _410
REMARK  154  A    between atoms: _409  and  _412
REMARK  155  A    between atoms: _412  and  _413
REMARK  156  A    between atoms: _416  and  _418
REMARK  157  A    between atoms: _418  and  _419
REMARK  158  A    between atoms: _418  and  _421
REMARK  159  A    between atoms: _421  and  _422
REMARK                            x       y       z     vdW  Elec       q    Type
REMARK                         _______ _______ _______ _____ _____    ______ ____
ROOT
ATOM      1  O   HOH     1       7.141  30.128  30.145  0.00  0.00    +0.000 OA
ENDROOT
TORSDOF 0
REMARK  Name = ../refined-set-2016/2zxd/2zxd_pocket.pdb
REMARK  159 active torsions:
REMARK  status: ('A' for Active; 'I' for Inactive)
REMARK    1  A    between atoms: _1  and  _3
REMARK    2  A    between atoms: _3  and  _4
REMARK    3  A    between atoms: _3  and  _6
REMARK    4  A    between atoms: _6  and  _7
REMARK    5  A    between atoms: _13  and  _15
REMARK    6  A    between atoms: _15  and  _16
REMARK    7  A    between atoms: _15  and  _18
REMARK    8  A    between atoms: _18  and  _19
REMARK    9  A    between atoms: _24  and  _26
REMARK   10  A    between atoms: _26  and  _27
REMARK   11  A    between atoms: _26  and  _29
REMARK   12  A    between atoms: _29  and  _30
REMARK   13  A    between atoms: _35  and  _36
REMARK   14  A    between atoms: _38  and  _40
REMARK   15  A    between atoms: _40  and  _41
REMARK   16  A    between atoms: _40  and  _43
REMARK   17  A    between atoms: _43  and  _44
REMARK   18  A    between atoms: _47  and  _49
REMARK   19  A    between atoms: _49  and  _50
REMARK   20  A    between atoms: _49  and  _52
REMARK   21  A    between atoms: _52  and  _53
REMARK   22  A    between atoms: _63  and  _65
REMARK   23  A    between atoms: _65  and  _66
REMARK   24  A    between atoms: _65  and  _68
REMARK   25  A    between atoms: _68  and  _69
REMARK   26  A    between atoms: _75  and  _77
REMARK   27  A    between atoms: _77  and  _78
REMARK   28  A    between atoms: _77  and  _80
REMARK   29  A    between atoms: _80  and  _81
REMARK   30  A    between atoms: _86  and  _88
REMARK   31  A    between atoms: _88  and  _89
REMARK   32  A    between atoms: _88  and  _91
REMARK   33  A    between atoms: _91  and  _92
REMARK   34  A    between atoms: _97  and  _98
REMARK   35  A    between atoms: _100  and  _102
REMARK   36  A    between atoms: _102  and  _103
REMARK   37  A    between atoms: _106  and  _108
REMARK   38  A    between atoms: _108  and  _109
REMARK   39  A    between atoms: _108  and  _111
REMARK   40  A    between atoms: _111  and  _112
REMARK   41  A    between atoms: _112  and  _113
REMARK   42  A    between atoms: _116  and  _118
REMARK   43  A    between atoms: _118  and  _119
REMARK   44  A    between atoms: _118  and  _121
REMARK   45  A    between atoms: _121  and  _122
REMARK   46  A    between atoms: _132  and  _134
REMARK   47  A    between atoms: _134  and  _135
REMARK   48  A    between atoms: _134  and  _137
REMARK   49  A    between atoms: _137  and  _138
REMARK   50  A    between atoms: _143  and  _144
REMARK   51  A    between atoms: _146  and  _148
REMARK   52  A    between atoms: _148  and  _149
REMARK   53  A    between atoms: _148  and  _151
REMARK   54  A    between atoms: _151  and  _152
REMARK   55  A    between atoms: _155  and  _157
REMARK   56  A    between atoms: _157  and  _158
REMARK   57  A    between atoms: _157  and  _160
REMARK   58  A    between atoms: _160  and  _161
REMARK   59  A    between atoms: _166  and  _168
REMARK   60  A    between atoms: _168  and  _169
REMARK   61  A    between atoms: _168  and  _171
REMARK   62  A    between atoms: _171  and  _172
REMARK   63  A    between atoms: _177  and  _179
REMARK   64  A    between atoms: _179  and  _180
REMARK   65  A    between atoms: _179  and  _182
REMARK   66  A    between atoms: _182  and  _183
REMARK   67  A    between atoms: _186  and  _188
REMARK   68  A    between atoms: _188  and  _189
REMARK   69  A    between atoms: _188  and  _191
REMARK   70  A    between atoms: _191  and  _192
REMARK   71  A    between atoms: _197  and  _198
REMARK   72  A    between atoms: _200  and  _202
REMARK   73  A    between atoms: _202  and  _203
REMARK   74  A    between atoms: _202  and  _205
REMARK   75  A    between atoms: _205  and  _206
REMARK   76  A    between atoms: _208  and  _210
REMARK   77  A    between atoms: _210  and  _211
REMARK   78  A    between atoms: _210  and  _213
REMARK   79  A    between atoms: _213  and  _214
REMARK   80  A    between atoms: _217  and  _219
REMARK   81  A    between atoms: _219  and  _220
REMARK   82  A    between atoms: _219  and  _222
REMARK   83  A    between atoms: _222  and  _223
REMARK   84  A    between atoms: _233  and  _235
REMARK   85  A    between atoms: _235  and  _236
REMARK   86  A    between atoms: _235  and  _238
REMARK   87  A    between atoms: _238  and  _239
REMARK   88  A    between atoms: _242  and  _244
REMARK   89  A    between atoms: _244  and  _245
REMARK   90  A    between atoms: _244  and  _247
REMARK   91  A    between atoms: _247  and  _248
REMARK   92  A    between atoms: _258  and  _260
REMARK   93  A    between atoms: _260  and  _261
REMARK   94  A    between atoms: _260  and  _263
REMARK   95  A    between atoms: _263  and  _264
REMARK   96  A    between atoms: _269  and  _271
REMARK   97  A    between atoms: _271  and  _272
REMARK   98  A    between atoms: _271  and  _274
REMARK   99  A    between atoms: _274  and  _275
REMARK  100  A    between atoms: _278  and  _280
REMARK  101  A    between atoms: _280  and  _281
REMARK  102  A    between atoms: _280  and  _283
REMARK  103  A    between atoms: _283  and  _284
REMARK  104  A    between atoms: _284  and  _285
REMARK  105  A    between atoms: _287  and  _289
REMARK  106  A    between atoms: _289  and  _290
REMARK  107  A    between atoms: _289  and  _292
REMARK  108  A    between atoms: _292  and  _293
REMARK  109  A    between atoms: _298  and  _300
REMARK  110  A    between atoms: _300  and  _301
REMARK  111  A    between atoms: _300  and  _303
REMARK  112  A    between atoms: _303  and  _304
REMARK  113  A    between atoms: _304  and  _305
REMARK  114  A    between atoms: _305  and  _306
REMARK  115  A    between atoms: _315  and  _317
REMARK  116  A    between atoms: _317  and  _318
REMARK  117  A    between atoms: _317  and  _320
REMARK  118  A    between atoms: _320  and  _321
REMARK  119  A    between atoms: _324  and  _326
REMARK  120  A    between atoms: _326  and  _327
REMARK  121  A    between atoms: _330  and  _332
REMARK  122  A    between atoms: _332  and  _333
REMARK  123  A    between atoms: _332  and  _335
REMARK  124  A    between atoms: _335  and  _336
REMARK  125  A    between atoms: _336  and  _337
REMARK  126  A    between atoms: _340  and  _342
REMARK  127  A    between atoms: _342  and  _343
REMARK  128  A    between atoms: _342  and  _345
REMARK  129  A    between atoms: _345  and  _346
REMARK  130  A    between atoms: _351  and  _353
REMARK  131  A    between atoms: _353  and  _354
REMARK  132  A    between atoms: _353  and  _356
REMARK  133  A    between atoms: _356  and  _357
REMARK  134  A    between atoms: _360  and  _362
REMARK  135  A    between atoms: _362  and  _363
REMARK  136  A    between atoms: _362  and  _365
REMARK  137  A    between atoms: _365  and  _366
REMARK  138  A    between atoms: _366  and  _367
REMARK  139  A    between atoms: _367  and  _368
REMARK  140  A    between atoms: _377  and  _379
REMARK  141  A    between atoms: _379  and  _380
REMARK  142  A    between atoms: _382  and  _384
REMARK  143  A    between atoms: _384  and  _385
REMARK  144  A    between atoms: _384  and  _387
REMARK  145  A    between atoms: _387  and  _388
REMARK  146  A    between atoms: _390  and  _392
REMARK  147  A    between atoms: _392  and  _393
REMARK  148  A    between atoms: _392  and  _395
REMARK  149  A    between atoms: _395  and  _396
REMARK  150  A    between atoms: _402  and  _404
REMARK  151  A    between atoms: _404  and  _405
REMARK  152  A    between atoms: _407  and  _409
REMARK  153  A    between atoms: _409  and  _410
REMARK  154  A    between atoms: _409  and  _412
REMARK  155  A    between atoms: _412  and  _413
REMARK  156  A    between atoms: _416  and  _418
REMARK  157  A    between atoms: _418  and  _419
REMARK  158  A    between atoms: _418  and  _421
REMARK  159  A    between atoms: _421  and  _422
REMARK                            x       y       z     vdW  Elec       q    Type
REMARK                         _______ _______ _______ _____ _____    ______ ____
ROOT
ATOM      1  O   HOH     1      -2.435  30.191  27.895  0.00  0.00    +0.000 OA
ENDROOT
TORSDOF 0
REMARK  Name = ../refined-set-2016/2zxd/2zxd_pocket.pdb
REMARK  159 active torsions:
REMARK  status: ('A' for Active; 'I' for Inactive)
REMARK    1  A    between atoms: _1  and  _3
REMARK    2  A    between atoms: _3  and  _4
REMARK    3  A    between atoms: _3  and  _6
REMARK    4  A    between atoms: _6  and  _7
REMARK    5  A    between atoms: _13  and  _15
REMARK    6  A    between atoms: _15  and  _16
REMARK    7  A    between atoms: _15  and  _18
REMARK    8  A    between atoms: _18  and  _19
REMARK    9  A    between atoms: _24  and  _26
REMARK   10  A    between atoms: _26  and  _27
REMARK   11  A    between atoms: _26  and  _29
REMARK   12  A    between atoms: _29  and  _30
REMARK   13  A    between atoms: _35  and  _36
REMARK   14  A    between atoms: _38  and  _40
REMARK   15  A    between atoms: _40  and  _41
REMARK   16  A    between atoms: _40  and  _43
REMARK   17  A    between atoms: _43  and  _44
REMARK   18  A    between atoms: _47  and  _49
REMARK   19  A    between atoms: _49  and  _50
REMARK   20  A    between atoms: _49  and  _52
REMARK   21  A    between atoms: _52  and  _53
REMARK   22  A    between atoms: _63  and  _65
REMARK   23  A    between atoms: _65  and  _66
REMARK   24  A    between atoms: _65  and  _68
REMARK   25  A    between atoms: _68  and  _69
REMARK   26  A    between atoms: _75  and  _77
REMARK   27  A    between atoms: _77  and  _78
REMARK   28  A    between atoms: _77  and  _80
REMARK   29  A    between atoms: _80  and  _81
REMARK   30  A    between atoms: _86  and  _88
REMARK   31  A    between atoms: _88  and  _89
REMARK   32  A    between atoms: _88  and  _91
REMARK   33  A    between atoms: _91  and  _92
REMARK   34  A    between atoms: _97  and  _98
REMARK   35  A    between atoms: _100  and  _102
REMARK   36  A    between atoms: _102  and  _103
REMARK   37  A    between atoms: _106  and  _108
REMARK   38  A    between atoms: _108  and  _109
REMARK   39  A    between atoms: _108  and  _111
REMARK   40  A    between atoms: _111  and  _112
REMARK   41  A    between atoms: _112  and  _113
REMARK   42  A    between atoms: _116  and  _118
REMARK   43  A    between atoms: _118  and  _119
REMARK   44  A    between atoms: _118  and  _121
REMARK   45  A    between atoms: _121  and  _122
REMARK   46  A    between atoms: _132  and  _134
REMARK   47  A    between atoms: _134  and  _135
REMARK   48  A    between atoms: _134  and  _137
REMARK   49  A    between atoms: _137  and  _138
REMARK   50  A    between atoms: _143  and  _144
REMARK   51  A    between atoms: _146  and  _148
REMARK   52  A    between atoms: _148  and  _149
REMARK   53  A    between atoms: _148  and  _151
REMARK   54  A    between atoms: _151  and  _152
REMARK   55  A    between atoms: _155  and  _157
REMARK   56  A    between atoms: _157  and  _158
REMARK   57  A    between atoms: _157  and  _160
REMARK   58  A    between atoms: _160  and  _161
REMARK   59  A    between atoms: _166  and  _168
REMARK   60  A    between atoms: _168  and  _169
REMARK   61  A    between atoms: _168  and  _171
REMARK   62  A    between atoms: _171  and  _172
REMARK   63  A    between atoms: _177  and  _179
REMARK   64  A    between atoms: _179  and  _180
REMARK   65  A    between atoms: _179  and  _182
REMARK   66  A    between atoms: _182  and  _183
REMARK   67  A    between atoms: _186  and  _188
REMARK   68  A    between atoms: _188  and  _189
REMARK   69  A    between atoms: _188  and  _191
REMARK   70  A    between atoms: _191  and  _192
REMARK   71  A    between atoms: _197  and  _198
REMARK   72  A    between atoms: _200  and  _202
REMARK   73  A    between atoms: _202  and  _203
REMARK   74  A    between atoms: _202  and  _205
REMARK   75  A    between atoms: _205  and  _206
REMARK   76  A    between atoms: _208  and  _210
REMARK   77  A    between atoms: _210  and  _211
REMARK   78  A    between atoms: _210  and  _213
REMARK   79  A    between atoms: _213  and  _214
REMARK   80  A    between atoms: _217  and  _219
REMARK   81  A    between atoms: _219  and  _220
REMARK   82  A    between atoms: _219  and  _222
REMARK   83  A    between atoms: _222  and  _223
REMARK   84  A    between atoms: _233  and  _235
REMARK   85  A    between atoms: _235  and  _236
REMARK   86  A    between atoms: _235  and  _238
REMARK   87  A    between atoms: _238  and  _239
REMARK   88  A    between atoms: _242  and  _244
REMARK   89  A    between atoms: _244  and  _245
REMARK   90  A    between atoms: _244  and  _247
REMARK   91  A    between atoms: _247  and  _248
REMARK   92  A    between atoms: _258  and  _260
REMARK   93  A    between atoms: _260  and  _261
REMARK   94  A    between atoms: _260  and  _263
REMARK   95  A    between atoms: _263  and  _264
REMARK   96  A    between atoms: _269  and  _271
REMARK   97  A    between atoms: _271  and  _272
REMARK   98  A    between atoms: _271  and  _274
REMARK   99  A    between atoms: _274  and  _275
REMARK  100  A    between atoms: _278  and  _280
REMARK  101  A    between atoms: _280  and  _281
REMARK  102  A    between atoms: _280  and  _283
REMARK  103  A    between atoms: _283  and  _284
REMARK  104  A    between atoms: _284  and  _285
REMARK  105  A    between atoms: _287  and  _289
REMARK  106  A    between atoms: _289  and  _290
REMARK  107  A    between atoms: _289  and  _292
REMARK  108  A    between atoms: _292  and  _293
REMARK  109  A    between atoms: _298  and  _300
REMARK  110  A    between atoms: _300  and  _301
REMARK  111  A    between atoms: _300  and  _303
REMARK  112  A    between atoms: _303  and  _304
REMARK  113  A    between atoms: _304  and  _305
REMARK  114  A    between atoms: _305  and  _306
REMARK  115  A    between atoms: _315  and  _317
REMARK  116  A    between atoms: _317  and  _318
REMARK  117  A    between atoms: _317  and  _320
REMARK  118  A    between atoms: _320  and  _321
REMARK  119  A    between atoms: _324  and  _326
REMARK  120  A    between atoms: _326  and  _327
REMARK  121  A    between atoms: _330  and  _332
REMARK  122  A    between atoms: _332  and  _333
REMARK  123  A    between atoms: _332  and  _335
REMARK  124  A    between atoms: _335  and  _336
REMARK  125  A    between atoms: _336  and  _337
REMARK  126  A    between atoms: _340  and  _342
REMARK  127  A    between atoms: _342  and  _343
REMARK  128  A    between atoms: _342  and  _345
REMARK  129  A    between atoms: _345  and  _346
REMARK  130  A    between atoms: _351  and  _353
REMARK  131  A    between atoms: _353  and  _354
REMARK  132  A    between atoms: _353  and  _356
REMARK  133  A    between atoms: _356  and  _357
REMARK  134  A    between atoms: _360  and  _362
REMARK  135  A    between atoms: _362  and  _363
REMARK  136  A    between atoms: _362  and  _365
REMARK  137  A    between atoms: _365  and  _366
REMARK  138  A    between atoms: _366  and  _367
REMARK  139  A    between atoms: _367  and  _368
REMARK  140  A    between atoms: _377  and  _379
REMARK  141  A    between atoms: _379  and  _380
REMARK  142  A    between atoms: _382  and  _384
REMARK  143  A    between atoms: _384  and  _385
REMARK  144  A    between atoms: _384  and  _387
REMARK  145  A    between atoms: _387  and  _388
REMARK  146  A    between atoms: _390  and  _392
REMARK  147  A    between atoms: _392  and  _393
REMARK  148  A    between atoms: _392  and  _395
REMARK  149  A    between atoms: _395  and  _396
REMARK  150  A    between atoms: _402  and  _404
REMARK  151  A    between atoms: _404  and  _405
REMARK  152  A    between atoms: _407  and  _409
REMARK  153  A    between atoms: _409  and  _410
REMARK  154  A    between atoms: _409  and  _412
REMARK  155  A    between atoms: _412  and  _413
REMARK  156  A    between atoms: _416  and  _418
REMARK  157  A    between atoms: _418  and  _419
REMARK  158  A    between atoms: _418  and  _421
REMARK  159  A    between atoms: _421  and  _422
REMARK                            x       y       z     vdW  Elec       q    Type
REMARK                         _______ _______ _______ _____ _____    ______ ____
ROOT
ATOM      1  O   HOH     1      -3.999  28.035  29.033  0.00  0.00    +0.000 OA
ENDROOT
TORSDOF 0
REMARK  Name = ../refined-set-2016/2zxd/2zxd_pocket.pdb
REMARK  159 active torsions:
REMARK  status: ('A' for Active; 'I' for Inactive)
REMARK    1  A    between atoms: _1  and  _3
REMARK    2  A    between atoms: _3  and  _4
REMARK    3  A    between atoms: _3  and  _6
REMARK    4  A    between atoms: _6  and  _7
REMARK    5  A    between atoms: _13  and  _15
REMARK    6  A    between atoms: _15  and  _16
REMARK    7  A    between atoms: _15  and  _18
REMARK    8  A    between atoms: _18  and  _19
REMARK    9  A    between atoms: _24  and  _26
REMARK   10  A    between atoms: _26  and  _27
REMARK   11  A    between atoms: _26  and  _29
REMARK   12  A    between atoms: _29  and  _30
REMARK   13  A    between atoms: _35  and  _36
REMARK   14  A    between atoms: _38  and  _40
REMARK   15  A    between atoms: _40  and  _41
REMARK   16  A    between atoms: _40  and  _43
REMARK   17  A    between atoms: _43  and  _44
REMARK   18  A    between atoms: _47  and  _49
REMARK   19  A    between atoms: _49  and  _50
REMARK   20  A    between atoms: _49  and  _52
REMARK   21  A    between atoms: _52  and  _53
REMARK   22  A    between atoms: _63  and  _65
REMARK   23  A    between atoms: _65  and  _66
REMARK   24  A    between atoms: _65  and  _68
REMARK   25  A    between atoms: _68  and  _69
REMARK   26  A    between atoms: _75  and  _77
REMARK   27  A    between atoms: _77  and  _78
REMARK   28  A    between atoms: _77  and  _80
REMARK   29  A    between atoms: _80  and  _81
REMARK   30  A    between atoms: _86  and  _88
REMARK   31  A    between atoms: _88  and  _89
REMARK   32  A    between atoms: _88  and  _91
REMARK   33  A    between atoms: _91  and  _92
REMARK   34  A    between atoms: _97  and  _98
REMARK   35  A    between atoms: _100  and  _102
REMARK   36  A    between atoms: _102  and  _103
REMARK   37  A    between atoms: _106  and  _108
REMARK   38  A    between atoms: _108  and  _109
REMARK   39  A    between atoms: _108  and  _111
REMARK   40  A    between atoms: _111  and  _112
REMARK   41  A    between atoms: _112  and  _113
REMARK   42  A    between atoms: _116  and  _118
REMARK   43  A    between atoms: _118  and  _119
REMARK   44  A    between atoms: _118  and  _121
REMARK   45  A    between atoms: _121  and  _122
REMARK   46  A    between atoms: _132  and  _134
REMARK   47  A    between atoms: _134  and  _135
REMARK   48  A    between atoms: _134  and  _137
REMARK   49  A    between atoms: _137  and  _138
REMARK   50  A    between atoms: _143  and  _144
REMARK   51  A    between atoms: _146  and  _148
REMARK   52  A    between atoms: _148  and  _149
REMARK   53  A    between atoms: _148  and  _151
REMARK   54  A    between atoms: _151  and  _152
REMARK   55  A    between atoms: _155  and  _157
REMARK   56  A    between atoms: _157  and  _158
REMARK   57  A    between atoms: _157  and  _160
REMARK   58  A    between atoms: _160  and  _161
REMARK   59  A    between atoms: _166  and  _168
REMARK   60  A    between atoms: _168  and  _169
REMARK   61  A    between atoms: _168  and  _171
REMARK   62  A    between atoms: _171  and  _172
REMARK   63  A    between atoms: _177  and  _179
REMARK   64  A    between atoms: _179  and  _180
REMARK   65  A    between atoms: _179  and  _182
REMARK   66  A    between atoms: _182  and  _183
REMARK   67  A    between atoms: _186  and  _188
REMARK   68  A    between atoms: _188  and  _189
REMARK   69  A    between atoms: _188  and  _191
REMARK   70  A    between atoms: _191  and  _192
REMARK   71  A    between atoms: _197  and  _198
REMARK   72  A    between atoms: _200  and  _202
REMARK   73  A    between atoms: _202  and  _203
REMARK   74  A    between atoms: _202  and  _205
REMARK   75  A    between atoms: _205  and  _206
REMARK   76  A    between atoms: _208  and  _210
REMARK   77  A    between atoms: _210  and  _211
REMARK   78  A    between atoms: _210  and  _213
REMARK   79  A    between atoms: _213  and  _214
REMARK   80  A    between atoms: _217  and  _219
REMARK   81  A    between atoms: _219  and  _220
REMARK   82  A    between atoms: _219  and  _222
REMARK   83  A    between atoms: _222  and  _223
REMARK   84  A    between atoms: _233  and  _235
REMARK   85  A    between atoms: _235  and  _236
REMARK   86  A    between atoms: _235  and  _238
REMARK   87  A    between atoms: _238  and  _239
REMARK   88  A    between atoms: _242  and  _244
REMARK   89  A    between atoms: _244  and  _245
REMARK   90  A    between atoms: _244  and  _247
REMARK   91  A    between atoms: _247  and  _248
REMARK   92  A    between atoms: _258  and  _260
REMARK   93  A    between atoms: _260  and  _261
REMARK   94  A    between atoms: _260  and  _263
REMARK   95  A    between atoms: _263  and  _264
REMARK   96  A    between atoms: _269  and  _271
REMARK   97  A    between atoms: _271  and  _272
REMARK   98  A    between atoms: _271  and  _274
REMARK   99  A    between atoms: _274  and  _275
REMARK  100  A    between atoms: _278  and  _280
REMARK  101  A    between atoms: _280  and  _281
REMARK  102  A    between atoms: _280  and  _283
REMARK  103  A    between atoms: _283  and  _284
REMARK  104  A    between atoms: _284  and  _285
REMARK  105  A    between atoms: _287  and  _289
REMARK  106  A    between atoms: _289  and  _290
REMARK  107  A    between atoms: _289  and  _292
REMARK  108  A    between atoms: _292  and  _293
REMARK  109  A    between atoms: _298  and  _300
REMARK  110  A    between atoms: _300  and  _301
REMARK  111  A    between atoms: _300  and  _303
REMARK  112  A    between atoms: _303  and  _304
REMARK  113  A    between atoms: _304  and  _305
REMARK  114  A    between atoms: _305  and  _306
REMARK  115  A    between atoms: _315  and  _317
REMARK  116  A    between atoms: _317  and  _318
REMARK  117  A    between atoms: _317  and  _320
REMARK  118  A    between atoms: _320  and  _321
REMARK  119  A    between atoms: _324  and  _326
REMARK  120  A    between atoms: _326  and  _327
REMARK  121  A    between atoms: _330  and  _332
REMARK  122  A    between atoms: _332  and  _333
REMARK  123  A    between atoms: _332  and  _335
REMARK  124  A    between atoms: _335  and  _336
REMARK  125  A    between atoms: _336  and  _337
REMARK  126  A    between atoms: _340  and  _342
REMARK  127  A    between atoms: _342  and  _343
REMARK  128  A    between atoms: _342  and  _345
REMARK  129  A    between atoms: _345  and  _346
REMARK  130  A    between atoms: _351  and  _353
REMARK  131  A    between atoms: _353  and  _354
REMARK  132  A    between atoms: _353  and  _356
REMARK  133  A    between atoms: _356  and  _357
REMARK  134  A    between atoms: _360  and  _362
REMARK  135  A    between atoms: _362  and  _363
REMARK  136  A    between atoms: _362  and  _365
REMARK  137  A    between atoms: _365  and  _366
REMARK  138  A    between atoms: _366  and  _367
REMARK  139  A    between atoms: _367  and  _368
REMARK  140  A    between atoms: _377  and  _379
REMARK  141  A    between atoms: _379  and  _380
REMARK  142  A    between atoms: _382  and  _384
REMARK  143  A    between atoms: _384  and  _385
REMARK  144  A    between atoms: _384  and  _387
REMARK  145  A    between atoms: _387  and  _388
REMARK  146  A    between atoms: _390  and  _392
REMARK  147  A    between atoms: _392  and  _393
REMARK  148  A    between atoms: _392  and  _395
REMARK  149  A    between atoms: _395  and  _396
REMARK  150  A    between atoms: _402  and  _404
REMARK  151  A    between atoms: _404  and  _405
REMARK  152  A    between atoms: _407  and  _409
REMARK  153  A    between atoms: _409  and  _410
REMARK  154  A    between atoms: _409  and  _412
REMARK  155  A    between atoms: _412  and  _413
REMARK  156  A    between atoms: _416  and  _418
REMARK  157  A    between atoms: _418  and  _419
REMARK  158  A    between atoms: _418  and  _421
REMARK  159  A    between atoms: _421  and  _422
REMARK                            x       y       z     vdW  Elec       q    Type
REMARK                         _______ _______ _______ _____ _____    ______ ____
ROOT
ATOM      1  O   HOH     1      -0.684  36.533  25.373  0.00  0.00    +0.000 OA
ENDROOT
TORSDOF 0
REMARK  Name = ../refined-set-2016/2zxd/2zxd_pocket.pdb
REMARK  159 active torsions:
REMARK  status: ('A' for Active; 'I' for Inactive)
REMARK    1  A    between atoms: _1  and  _3
REMARK    2  A    between atoms: _3  and  _4
REMARK    3  A    between atoms: _3  and  _6
REMARK    4  A    between atoms: _6  and  _7
REMARK    5  A    between atoms: _13  and  _15
REMARK    6  A    between atoms: _15  and  _16
REMARK    7  A    between atoms: _15  and  _18
REMARK    8  A    between atoms: _18  and  _19
REMARK    9  A    between atoms: _24  and  _26
REMARK   10  A    between atoms: _26  and  _27
REMARK   11  A    between atoms: _26  and  _29
REMARK   12  A    between atoms: _29  and  _30
REMARK   13  A    between atoms: _35  and  _36
REMARK   14  A    between atoms: _38  and  _40
REMARK   15  A    between atoms: _40  and  _41
REMARK   16  A    between atoms: _40  and  _43
REMARK   17  A    between atoms: _43  and  _44
REMARK   18  A    between atoms: _47  and  _49
REMARK   19  A    between atoms: _49  and  _50
REMARK   20  A    between atoms: _49  and  _52
REMARK   21  A    between atoms: _52  and  _53
REMARK   22  A    between atoms: _63  and  _65
REMARK   23  A    between atoms: _65  and  _66
REMARK   24  A    between atoms: _65  and  _68
REMARK   25  A    between atoms: _68  and  _69
REMARK   26  A    between atoms: _75  and  _77
REMARK   27  A    between atoms: _77  and  _78
REMARK   28  A    between atoms: _77  and  _80
REMARK   29  A    between atoms: _80  and  _81
REMARK   30  A    between atoms: _86  and  _88
REMARK   31  A    between atoms: _88  and  _89
REMARK   32  A    between atoms: _88  and  _91
REMARK   33  A    between atoms: _91  and  _92
REMARK   34  A    between atoms: _97  and  _98
REMARK   35  A    between atoms: _100  and  _102
REMARK   36  A    between atoms: _102  and  _103
REMARK   37  A    between atoms: _106  and  _108
REMARK   38  A    between atoms: _108  and  _109
REMARK   39  A    between atoms: _108  and  _111
REMARK   40  A    between atoms: _111  and  _112
REMARK   41  A    between atoms: _112  and  _113
REMARK   42  A    between atoms: _116  and  _118
REMARK   43  A    between atoms: _118  and  _119
REMARK   44  A    between atoms: _118  and  _121
REMARK   45  A    between atoms: _121  and  _122
REMARK   46  A    between atoms: _132  and  _134
REMARK   47  A    between atoms: _134  and  _135
REMARK   48  A    between atoms: _134  and  _137
REMARK   49  A    between atoms: _137  and  _138
REMARK   50  A    between atoms: _143  and  _144
REMARK   51  A    between atoms: _146  and  _148
REMARK   52  A    between atoms: _148  and  _149
REMARK   53  A    between atoms: _148  and  _151
REMARK   54  A    between atoms: _151  and  _152
REMARK   55  A    between atoms: _155  and  _157
REMARK   56  A    between atoms: _157  and  _158
REMARK   57  A    between atoms: _157  and  _160
REMARK   58  A    between atoms: _160  and  _161
REMARK   59  A    between atoms: _166  and  _168
REMARK   60  A    between atoms: _168  and  _169
REMARK   61  A    between atoms: _168  and  _171
REMARK   62  A    between atoms: _171  and  _172
REMARK   63  A    between atoms: _177  and  _179
REMARK   64  A    between atoms: _179  and  _180
REMARK   65  A    between atoms: _179  and  _182
REMARK   66  A    between atoms: _182  and  _183
REMARK   67  A    between atoms: _186  and  _188
REMARK   68  A    between atoms: _188  and  _189
REMARK   69  A    between atoms: _188  and  _191
REMARK   70  A    between atoms: _191  and  _192
REMARK   71  A    between atoms: _197  and  _198
REMARK   72  A    between atoms: _200  and  _202
REMARK   73  A    between atoms: _202  and  _203
REMARK   74  A    between atoms: _202  and  _205
REMARK   75  A    between atoms: _205  and  _206
REMARK   76  A    between atoms: _208  and  _210
REMARK   77  A    between atoms: _210  and  _211
REMARK   78  A    between atoms: _210  and  _213
REMARK   79  A    between atoms: _213  and  _214
REMARK   80  A    between atoms: _217  and  _219
REMARK   81  A    between atoms: _219  and  _220
REMARK   82  A    between atoms: _219  and  _222
REMARK   83  A    between atoms: _222  and  _223
REMARK   84  A    between atoms: _233  and  _235
REMARK   85  A    between atoms: _235  and  _236
REMARK   86  A    between atoms: _235  and  _238
REMARK   87  A    between atoms: _238  and  _239
REMARK   88  A    between atoms: _242  and  _244
REMARK   89  A    between atoms: _244  and  _245
REMARK   90  A    between atoms: _244  and  _247
REMARK   91  A    between atoms: _247  and  _248
REMARK   92  A    between atoms: _258  and  _260
REMARK   93  A    between atoms: _260  and  _261
REMARK   94  A    between atoms: _260  and  _263
REMARK   95  A    between atoms: _263  and  _264
REMARK   96  A    between atoms: _269  and  _271
REMARK   97  A    between atoms: _271  and  _272
REMARK   98  A    between atoms: _271  and  _274
REMARK   99  A    between atoms: _274  and  _275
REMARK  100  A    between atoms: _278  and  _280
REMARK  101  A    between atoms: _280  and  _281
REMARK  102  A    between atoms: _280  and  _283
REMARK  103  A    between atoms: _283  and  _284
REMARK  104  A    between atoms: _284  and  _285
REMARK  105  A    between atoms: _287  and  _289
REMARK  106  A    between atoms: _289  and  _290
REMARK  107  A    between atoms: _289  and  _292
REMARK  108  A    between atoms: _292  and  _293
REMARK  109  A    between atoms: _298  and  _300
REMARK  110  A    between atoms: _300  and  _301
REMARK  111  A    between atoms: _300  and  _303
REMARK  112  A    between atoms: _303  and  _304
REMARK  113  A    between atoms: _304  and  _305
REMARK  114  A    between atoms: _305  and  _306
REMARK  115  A    between atoms: _315  and  _317
REMARK  116  A    between atoms: _317  and  _318
REMARK  117  A    between atoms: _317  and  _320
REMARK  118  A    between atoms: _320  and  _321
REMARK  119  A    between atoms: _324  and  _326
REMARK  120  A    between atoms: _326  and  _327
REMARK  121  A    between atoms: _330  and  _332
REMARK  122  A    between atoms: _332  and  _333
REMARK  123  A    between atoms: _332  and  _335
REMARK  124  A    between atoms: _335  and  _336
REMARK  125  A    between atoms: _336  and  _337
REMARK  126  A    between atoms: _340  and  _342
REMARK  127  A    between atoms: _342  and  _343
REMARK  128  A    between atoms: _342  and  _345
REMARK  129  A    between atoms: _345  and  _346
REMARK  130  A    between atoms: _351  and  _353
REMARK  131  A    between atoms: _353  and  _354
REMARK  132  A    between atoms: _353  and  _356
REMARK  133  A    between atoms: _356  and  _357
REMARK  134  A    between atoms: _360  and  _362
REMARK  135  A    between atoms: _362  and  _363
REMARK  136  A    between atoms: _362  and  _365
REMARK  137  A    between atoms: _365  and  _366
REMARK  138  A    between atoms: _366  and  _367
REMARK  139  A    between atoms: _367  and  _368
REMARK  140  A    between atoms: _377  and  _379
REMARK  141  A    between atoms: _379  and  _380
REMARK  142  A    between atoms: _382  and  _384
REMARK  143  A    between atoms: _384  and  _385
REMARK  144  A    between atoms: _384  and  _387
REMARK  145  A    between atoms: _387  and  _388
REMARK  146  A    between atoms: _390  and  _392
REMARK  147  A    between atoms: _392  and  _393
REMARK  148  A    between atoms: _392  and  _395
REMARK  149  A    between atoms: _395  and  _396
REMARK  150  A    between atoms: _402  and  _404
REMARK  151  A    between atoms: _404  and  _405
REMARK  152  A    between atoms: _407  and  _409
REMARK  153  A    between atoms: _409  and  _410
REMARK  154  A    between atoms: _409  and  _412
REMARK  155  A    between atoms: _412  and  _413
REMARK  156  A    between atoms: _416  and  _418
REMARK  157  A    between atoms: _418  and  _419
REMARK  158  A    between atoms: _418  and  _421
REMARK  159  A    between atoms: _421  and  _422
REMARK                            x       y       z     vdW  Elec       q    Type
REMARK                         _______ _______ _______ _____ _____    ______ ____
ROOT
ATOM      1  O   HOH     1       0.581  35.384  30.204  0.00  0.00    +0.000 OA
ENDROOT
TORSDOF 0
REMARK  Name = ../refined-set-2016/2zxd/2zxd_pocket.pdb
REMARK  159 active torsions:
REMARK  status: ('A' for Active; 'I' for Inactive)
REMARK    1  A    between atoms: _1  and  _3
REMARK    2  A    between atoms: _3  and  _4
REMARK    3  A    between atoms: _3  and  _6
REMARK    4  A    between atoms: _6  and  _7
REMARK    5  A    between atoms: _13  and  _15
REMARK    6  A    between atoms: _15  and  _16
REMARK    7  A    between atoms: _15  and  _18
REMARK    8  A    between atoms: _18  and  _19
REMARK    9  A    between atoms: _24  and  _26
REMARK   10  A    between atoms: _26  and  _27
REMARK   11  A    between atoms: _26  and  _29
REMARK   12  A    between atoms: _29  and  _30
REMARK   13  A    between atoms: _35  and  _36
REMARK   14  A    between atoms: _38  and  _40
REMARK   15  A    between atoms: _40  and  _41
REMARK   16  A    between atoms: _40  and  _43
REMARK   17  A    between atoms: _43  and  _44
REMARK   18  A    between atoms: _47  and  _49
REMARK   19  A    between atoms: _49  and  _50
REMARK   20  A    between atoms: _49  and  _52
REMARK   21  A    between atoms: _52  and  _53
REMARK   22  A    between atoms: _63  and  _65
REMARK   23  A    between atoms: _65  and  _66
REMARK   24  A    between atoms: _65  and  _68
REMARK   25  A    between atoms: _68  and  _69
REMARK   26  A    between atoms: _75  and  _77
REMARK   27  A    between atoms: _77  and  _78
REMARK   28  A    between atoms: _77  and  _80
REMARK   29  A    between atoms: _80  and  _81
REMARK   30  A    between atoms: _86  and  _88
REMARK   31  A    between atoms: _88  and  _89
REMARK   32  A    between atoms: _88  and  _91
REMARK   33  A    between atoms: _91  and  _92
REMARK   34  A    between atoms: _97  and  _98
REMARK   35  A    between atoms: _100  and  _102
REMARK   36  A    between atoms: _102  and  _103
REMARK   37  A    between atoms: _106  and  _108
REMARK   38  A    between atoms: _108  and  _109
REMARK   39  A    between atoms: _108  and  _111
REMARK   40  A    between atoms: _111  and  _112
REMARK   41  A    between atoms: _112  and  _113
REMARK   42  A    between atoms: _116  and  _118
REMARK   43  A    between atoms: _118  and  _119
REMARK   44  A    between atoms: _118  and  _121
REMARK   45  A    between atoms: _121  and  _122
REMARK   46  A    between atoms: _132  and  _134
REMARK   47  A    between atoms: _134  and  _135
REMARK   48  A    between atoms: _134  and  _137
REMARK   49  A    between atoms: _137  and  _138
REMARK   50  A    between atoms: _143  and  _144
REMARK   51  A    between atoms: _146  and  _148
REMARK   52  A    between atoms: _148  and  _149
REMARK   53  A    between atoms: _148  and  _151
REMARK   54  A    between atoms: _151  and  _152
REMARK   55  A    between atoms: _155  and  _157
REMARK   56  A    between atoms: _157  and  _158
REMARK   57  A    between atoms: _157  and  _160
REMARK   58  A    between atoms: _160  and  _161
REMARK   59  A    between atoms: _166  and  _168
REMARK   60  A    between atoms: _168  and  _169
REMARK   61  A    between atoms: _168  and  _171
REMARK   62  A    between atoms: _171  and  _172
REMARK   63  A    between atoms: _177  and  _179
REMARK   64  A    between atoms: _179  and  _180
REMARK   65  A    between atoms: _179  and  _182
REMARK   66  A    between atoms: _182  and  _183
REMARK   67  A    between atoms: _186  and  _188
REMARK   68  A    between atoms: _188  and  _189
REMARK   69  A    between atoms: _188  and  _191
REMARK   70  A    between atoms: _191  and  _192
REMARK   71  A    between atoms: _197  and  _198
REMARK   72  A    between atoms: _200  and  _202
REMARK   73  A    between atoms: _202  and  _203
REMARK   74  A    between atoms: _202  and  _205
REMARK   75  A    between atoms: _205  and  _206
REMARK   76  A    between atoms: _208  and  _210
REMARK   77  A    between atoms: _210  and  _211
REMARK   78  A    between atoms: _210  and  _213
REMARK   79  A    between atoms: _213  and  _214
REMARK   80  A    between atoms: _217  and  _219
REMARK   81  A    between atoms: _219  and  _220
REMARK   82  A    between atoms: _219  and  _222
REMARK   83  A    between atoms: _222  and  _223
REMARK   84  A    between atoms: _233  and  _235
REMARK   85  A    between atoms: _235  and  _236
REMARK   86  A    between atoms: _235  and  _238
REMARK   87  A    between atoms: _238  and  _239
REMARK   88  A    between atoms: _242  and  _244
REMARK   89  A    between atoms: _244  and  _245
REMARK   90  A    between atoms: _244  and  _247
REMARK   91  A    between atoms: _247  and  _248
REMARK   92  A    between atoms: _258  and  _260
REMARK   93  A    between atoms: _260  and  _261
REMARK   94  A    between atoms: _260  and  _263
REMARK   95  A    between atoms: _263  and  _264
REMARK   96  A    between atoms: _269  and  _271
REMARK   97  A    between atoms: _271  and  _272
REMARK   98  A    between atoms: _271  and  _274
REMARK   99  A    between atoms: _274  and  _275
REMARK  100  A    between atoms: _278  and  _280
REMARK  101  A    between atoms: _280  and  _281
REMARK  102  A    between atoms: _280  and  _283
REMARK  103  A    between atoms: _283  and  _284
REMARK  104  A    between atoms: _284  and  _285
REMARK  105  A    between atoms: _287  and  _289
REMARK  106  A    between atoms: _289  and  _290
REMARK  107  A    between atoms: _289  and  _292
REMARK  108  A    between atoms: _292  and  _293
REMARK  109  A    between atoms: _298  and  _300
REMARK  110  A    between atoms: _300  and  _301
REMARK  111  A    between atoms: _300  and  _303
REMARK  112  A    between atoms: _303  and  _304
REMARK  113  A    between atoms: _304  and  _305
REMARK  114  A    between atoms: _305  and  _306
REMARK  115  A    between atoms: _315  and  _317
REMARK  116  A    between atoms: _317  and  _318
REMARK  117  A    between atoms: _317  and  _320
REMARK  118  A    between atoms: _320  and  _321
REMARK  119  A    between atoms: _324  and  _326
REMARK  120  A    between atoms: _326  and  _327
REMARK  121  A    between atoms: _330  and  _332
REMARK  122  A    between atoms: _332  and  _333
REMARK  123  A    between atoms: _332  and  _335
REMARK  124  A    between atoms: _335  and  _336
REMARK  125  A    between atoms: _336  and  _337
REMARK  126  A    between atoms: _340  and  _342
REMARK  127  A    between atoms: _342  and  _343
REMARK  128  A    between atoms: _342  and  _345
REMARK  129  A    between atoms: _345  and  _346
REMARK  130  A    between atoms: _351  and  _353
REMARK  131  A    between atoms: _353  and  _354
REMARK  132  A    between atoms: _353  and  _356
REMARK  133  A    between atoms: _356  and  _357
REMARK  134  A    between atoms: _360  and  _362
REMARK  135  A    between atoms: _362  and  _363
REMARK  136  A    between atoms: _362  and  _365
REMARK  137  A    between atoms: _365  and  _366
REMARK  138  A    between atoms: _366  and  _367
REMARK  139  A    between atoms: _367  and  _368
REMARK  140  A    between atoms: _377  and  _379
REMARK  141  A    between atoms: _379  and  _380
REMARK  142  A    between atoms: _382  and  _384
REMARK  143  A    between atoms: _384  and  _385
REMARK  144  A    between atoms: _384  and  _387
REMARK  145  A    between atoms: _387  and  _388
REMARK  146  A    between atoms: _390  and  _392
REMARK  147  A    between atoms: _392  and  _393
REMARK  148  A    between atoms: _392  and  _395
REMARK  149  A    between atoms: _395  and  _396
REMARK  150  A    between atoms: _402  and  _404
REMARK  151  A    between atoms: _404  and  _405
REMARK  152  A    between atoms: _407  and  _409
REMARK  153  A    between atoms: _409  and  _410
REMARK  154  A    between atoms: _409  and  _412
REMARK  155  A    between atoms: _412  and  _413
REMARK  156  A    between atoms: _416  and  _418
REMARK  157  A    between atoms: _418  and  _419
REMARK  158  A    between atoms: _418  and  _421
REMARK  159  A    between atoms: _421  and  _422
REMARK                            x       y       z     vdW  Elec       q    Type
REMARK                         _______ _______ _______ _____ _____    ______ ____
ROOT
ATOM      1  O   HOH     1      -0.742  27.617  28.903  0.00  0.00    +0.000 OA
ENDROOT
TORSDOF 0
REMARK  Name = ../refined-set-2016/2zxd/2zxd_pocket.pdb
REMARK  159 active torsions:
REMARK  status: ('A' for Active; 'I' for Inactive)
REMARK    1  A    between atoms: _1  and  _3
REMARK    2  A    between atoms: _3  and  _4
REMARK    3  A    between atoms: _3  and  _6
REMARK    4  A    between atoms: _6  and  _7
REMARK    5  A    between atoms: _13  and  _15
REMARK    6  A    between atoms: _15  and  _16
REMARK    7  A    between atoms: _15  and  _18
REMARK    8  A    between atoms: _18  and  _19
REMARK    9  A    between atoms: _24  and  _26
REMARK   10  A    between atoms: _26  and  _27
REMARK   11  A    between atoms: _26  and  _29
REMARK   12  A    between atoms: _29  and  _30
REMARK   13  A    between atoms: _35  and  _36
REMARK   14  A    between atoms: _38  and  _40
REMARK   15  A    between atoms: _40  and  _41
REMARK   16  A    between atoms: _40  and  _43
REMARK   17  A    between atoms: _43  and  _44
REMARK   18  A    between atoms: _47  and  _49
REMARK   19  A    between atoms: _49  and  _50
REMARK   20  A    between atoms: _49  and  _52
REMARK   21  A    between atoms: _52  and  _53
REMARK   22  A    between atoms: _63  and  _65
REMARK   23  A    between atoms: _65  and  _66
REMARK   24  A    between atoms: _65  and  _68
REMARK   25  A    between atoms: _68  and  _69
REMARK   26  A    between atoms: _75  and  _77
REMARK   27  A    between atoms: _77  and  _78
REMARK   28  A    between atoms: _77  and  _80
REMARK   29  A    between atoms: _80  and  _81
REMARK   30  A    between atoms: _86  and  _88
REMARK   31  A    between atoms: _88  and  _89
REMARK   32  A    between atoms: _88  and  _91
REMARK   33  A    between atoms: _91  and  _92
REMARK   34  A    between atoms: _97  and  _98
REMARK   35  A    between atoms: _100  and  _102
REMARK   36  A    between atoms: _102  and  _103
REMARK   37  A    between atoms: _106  and  _108
REMARK   38  A    between atoms: _108  and  _109
REMARK   39  A    between atoms: _108  and  _111
REMARK   40  A    between atoms: _111  and  _112
REMARK   41  A    between atoms: _112  and  _113
REMARK   42  A    between atoms: _116  and  _118
REMARK   43  A    between atoms: _118  and  _119
REMARK   44  A    between atoms: _118  and  _121
REMARK   45  A    between atoms: _121  and  _122
REMARK   46  A    between atoms: _132  and  _134
REMARK   47  A    between atoms: _134  and  _135
REMARK   48  A    between atoms: _134  and  _137
REMARK   49  A    between atoms: _137  and  _138
REMARK   50  A    between atoms: _143  and  _144
REMARK   51  A    between atoms: _146  and  _148
REMARK   52  A    between atoms: _148  and  _149
REMARK   53  A    between atoms: _148  and  _151
REMARK   54  A    between atoms: _151  and  _152
REMARK   55  A    between atoms: _155  and  _157
REMARK   56  A    between atoms: _157  and  _158
REMARK   57  A    between atoms: _157  and  _160
REMARK   58  A    between atoms: _160  and  _161
REMARK   59  A    between atoms: _166  and  _168
REMARK   60  A    between atoms: _168  and  _169
REMARK   61  A    between atoms: _168  and  _171
REMARK   62  A    between atoms: _171  and  _172
REMARK   63  A    between atoms: _177  and  _179
REMARK   64  A    between atoms: _179  and  _180
REMARK   65  A    between atoms: _179  and  _182
REMARK   66  A    between atoms: _182  and  _183
REMARK   67  A    between atoms: _186  and  _188
REMARK   68  A    between atoms: _188  and  _189
REMARK   69  A    between atoms: _188  and  _191
REMARK   70  A    between atoms: _191  and  _192
REMARK   71  A    between atoms: _197  and  _198
REMARK   72  A    between atoms: _200  and  _202
REMARK   73  A    between atoms: _202  and  _203
REMARK   74  A    between atoms: _202  and  _205
REMARK   75  A    between atoms: _205  and  _206
REMARK   76  A    between atoms: _208  and  _210
REMARK   77  A    between atoms: _210  and  _211
REMARK   78  A    between atoms: _210  and  _213
REMARK   79  A    between atoms: _213  and  _214
REMARK   80  A    between atoms: _217  and  _219
REMARK   81  A    between atoms: _219  and  _220
REMARK   82  A    between atoms: _219  and  _222
REMARK   83  A    between atoms: _222  and  _223
REMARK   84  A    between atoms: _233  and  _235
REMARK   85  A    between atoms: _235  and  _236
REMARK   86  A    between atoms: _235  and  _238
REMARK   87  A    between atoms: _238  and  _239
REMARK   88  A    between atoms: _242  and  _244
REMARK   89  A    between atoms: _244  and  _245
REMARK   90  A    between atoms: _244  and  _247
REMARK   91  A    between atoms: _247  and  _248
REMARK   92  A    between atoms: _258  and  _260
REMARK   93  A    between atoms: _260  and  _261
REMARK   94  A    between atoms: _260  and  _263
REMARK   95  A    between atoms: _263  and  _264
REMARK   96  A    between atoms: _269  and  _271
REMARK   97  A    between atoms: _271  and  _272
REMARK   98  A    between atoms: _271  and  _274
REMARK   99  A    between atoms: _274  and  _275
REMARK  100  A    between atoms: _278  and  _280
REMARK  101  A    between atoms: _280  and  _281
REMARK  102  A    between atoms: _280  and  _283
REMARK  103  A    between atoms: _283  and  _284
REMARK  104  A    between atoms: _284  and  _285
REMARK  105  A    between atoms: _287  and  _289
REMARK  106  A    between atoms: _289  and  _290
REMARK  107  A    between atoms: _289  and  _292
REMARK  108  A    between atoms: _292  and  _293
REMARK  109  A    between atoms: _298  and  _300
REMARK  110  A    between atoms: _300  and  _301
REMARK  111  A    between atoms: _300  and  _303
REMARK  112  A    between atoms: _303  and  _304
REMARK  113  A    between atoms: _304  and  _305
REMARK  114  A    between atoms: _305  and  _306
REMARK  115  A    between atoms: _315  and  _317
REMARK  116  A    between atoms: _317  and  _318
REMARK  117  A    between atoms: _317  and  _320
REMARK  118  A    between atoms: _320  and  _321
REMARK  119  A    between atoms: _324  and  _326
REMARK  120  A    between atoms: _326  and  _327
REMARK  121  A    between atoms: _330  and  _332
REMARK  122  A    between atoms: _332  and  _333
REMARK  123  A    between atoms: _332  and  _335
REMARK  124  A    between atoms: _335  and  _336
REMARK  125  A    between atoms: _336  and  _337
REMARK  126  A    between atoms: _340  and  _342
REMARK  127  A    between atoms: _342  and  _343
REMARK  128  A    between atoms: _342  and  _345
REMARK  129  A    between atoms: _345  and  _346
REMARK  130  A    between atoms: _351  and  _353
REMARK  131  A    between atoms: _353  and  _354
REMARK  132  A    between atoms: _353  and  _356
REMARK  133  A    between atoms: _356  and  _357
REMARK  134  A    between atoms: _360  and  _362
REMARK  135  A    between atoms: _362  and  _363
REMARK  136  A    between atoms: _362  and  _365
REMARK  137  A    between atoms: _365  and  _366
REMARK  138  A    between atoms: _366  and  _367
REMARK  139  A    between atoms: _367  and  _368
REMARK  140  A    between atoms: _377  and  _379
REMARK  141  A    between atoms: _379  and  _380
REMARK  142  A    between atoms: _382  and  _384
REMARK  143  A    between atoms: _384  and  _385
REMARK  144  A    between atoms: _384  and  _387
REMARK  145  A    between atoms: _387  and  _388
REMARK  146  A    between atoms: _390  and  _392
REMARK  147  A    between atoms: _392  and  _393
REMARK  148  A    between atoms: _392  and  _395
REMARK  149  A    between atoms: _395  and  _396
REMARK  150  A    between atoms: _402  and  _404
REMARK  151  A    between atoms: _404  and  _405
REMARK  152  A    between atoms: _407  and  _409
REMARK  153  A    between atoms: _409  and  _410
REMARK  154  A    between atoms: _409  and  _412
REMARK  155  A    between atoms: _412  and  _413
REMARK  156  A    between atoms: _416  and  _418
REMARK  157  A    between atoms: _418  and  _419
REMARK  158  A    between atoms: _418  and  _421
REMARK  159  A    between atoms: _421  and  _422
REMARK                            x       y       z     vdW  Elec       q    Type
REMARK                         _______ _______ _______ _____ _____    ______ ____
ROOT
ATOM      1  O   HOH     1      -2.834  26.204  30.380  0.00  0.00    +0.000 OA
ENDROOT
TORSDOF 0
REMARK  Name = ../refined-set-2016/2zxd/2zxd_pocket.pdb
REMARK  159 active torsions:
REMARK  status: ('A' for Active; 'I' for Inactive)
REMARK    1  A    between atoms: _1  and  _3
REMARK    2  A    between atoms: _3  and  _4
REMARK    3  A    between atoms: _3  and  _6
REMARK    4  A    between atoms: _6  and  _7
REMARK    5  A    between atoms: _13  and  _15
REMARK    6  A    between atoms: _15  and  _16
REMARK    7  A    between atoms: _15  and  _18
REMARK    8  A    between atoms: _18  and  _19
REMARK    9  A    between atoms: _24  and  _26
REMARK   10  A    between atoms: _26  and  _27
REMARK   11  A    between atoms: _26  and  _29
REMARK   12  A    between atoms: _29  and  _30
REMARK   13  A    between atoms: _35  and  _36
REMARK   14  A    between atoms: _38  and  _40
REMARK   15  A    between atoms: _40  and  _41
REMARK   16  A    between atoms: _40  and  _43
REMARK   17  A    between atoms: _43  and  _44
REMARK   18  A    between atoms: _47  and  _49
REMARK   19  A    between atoms: _49  and  _50
REMARK   20  A    between atoms: _49  and  _52
REMARK   21  A    between atoms: _52  and  _53
REMARK   22  A    between atoms: _63  and  _65
REMARK   23  A    between atoms: _65  and  _66
REMARK   24  A    between atoms: _65  and  _68
REMARK   25  A    between atoms: _68  and  _69
REMARK   26  A    between atoms: _75  and  _77
REMARK   27  A    between atoms: _77  and  _78
REMARK   28  A    between atoms: _77  and  _80
REMARK   29  A    between atoms: _80  and  _81
REMARK   30  A    between atoms: _86  and  _88
REMARK   31  A    between atoms: _88  and  _89
REMARK   32  A    between atoms: _88  and  _91
REMARK   33  A    between atoms: _91  and  _92
REMARK   34  A    between atoms: _97  and  _98
REMARK   35  A    between atoms: _100  and  _102
REMARK   36  A    between atoms: _102  and  _103
REMARK   37  A    between atoms: _106  and  _108
REMARK   38  A    between atoms: _108  and  _109
REMARK   39  A    between atoms: _108  and  _111
REMARK   40  A    between atoms: _111  and  _112
REMARK   41  A    between atoms: _112  and  _113
REMARK   42  A    between atoms: _116  and  _118
REMARK   43  A    between atoms: _118  and  _119
REMARK   44  A    between atoms: _118  and  _121
REMARK   45  A    between atoms: _121  and  _122
REMARK   46  A    between atoms: _132  and  _134
REMARK   47  A    between atoms: _134  and  _135
REMARK   48  A    between atoms: _134  and  _137
REMARK   49  A    between atoms: _137  and  _138
REMARK   50  A    between atoms: _143  and  _144
REMARK   51  A    between atoms: _146  and  _148
REMARK   52  A    between atoms: _148  and  _149
REMARK   53  A    between atoms: _148  and  _151
REMARK   54  A    between atoms: _151  and  _152
REMARK   55  A    between atoms: _155  and  _157
REMARK   56  A    between atoms: _157  and  _158
REMARK   57  A    between atoms: _157  and  _160
REMARK   58  A    between atoms: _160  and  _161
REMARK   59  A    between atoms: _166  and  _168
REMARK   60  A    between atoms: _168  and  _169
REMARK   61  A    between atoms: _168  and  _171
REMARK   62  A    between atoms: _171  and  _172
REMARK   63  A    between atoms: _177  and  _179
REMARK   64  A    between atoms: _179  and  _180
REMARK   65  A    between atoms: _179  and  _182
REMARK   66  A    between atoms: _182  and  _183
REMARK   67  A    between atoms: _186  and  _188
REMARK   68  A    between atoms: _188  and  _189
REMARK   69  A    between atoms: _188  and  _191
REMARK   70  A    between atoms: _191  and  _192
REMARK   71  A    between atoms: _197  and  _198
REMARK   72  A    between atoms: _200  and  _202
REMARK   73  A    between atoms: _202  and  _203
REMARK   74  A    between atoms: _202  and  _205
REMARK   75  A    between atoms: _205  and  _206
REMARK   76  A    between atoms: _208  and  _210
REMARK   77  A    between atoms: _210  and  _211
REMARK   78  A    between atoms: _210  and  _213
REMARK   79  A    between atoms: _213  and  _214
REMARK   80  A    between atoms: _217  and  _219
REMARK   81  A    between atoms: _219  and  _220
REMARK   82  A    between atoms: _219  and  _222
REMARK   83  A    between atoms: _222  and  _223
REMARK   84  A    between atoms: _233  and  _235
REMARK   85  A    between atoms: _235  and  _236
REMARK   86  A    between atoms: _235  and  _238
REMARK   87  A    between atoms: _238  and  _239
REMARK   88  A    between atoms: _242  and  _244
REMARK   89  A    between atoms: _244  and  _245
REMARK   90  A    between atoms: _244  and  _247
REMARK   91  A    between atoms: _247  and  _248
REMARK   92  A    between atoms: _258  and  _260
REMARK   93  A    between atoms: _260  and  _261
REMARK   94  A    between atoms: _260  and  _263
REMARK   95  A    between atoms: _263  and  _264
REMARK   96  A    between atoms: _269  and  _271
REMARK   97  A    between atoms: _271  and  _272
REMARK   98  A    between atoms: _271  and  _274
REMARK   99  A    between atoms: _274  and  _275
REMARK  100  A    between atoms: _278  and  _280
REMARK  101  A    between atoms: _280  and  _281
REMARK  102  A    between atoms: _280  and  _283
REMARK  103  A    between atoms: _283  and  _284
REMARK  104  A    between atoms: _284  and  _285
REMARK  105  A    between atoms: _287  and  _289
REMARK  106  A    between atoms: _289  and  _290
REMARK  107  A    between atoms: _289  and  _292
REMARK  108  A    between atoms: _292  and  _293
REMARK  109  A    between atoms: _298  and  _300
REMARK  110  A    between atoms: _300  and  _301
REMARK  111  A    between atoms: _300  and  _303
REMARK  112  A    between atoms: _303  and  _304
REMARK  113  A    between atoms: _304  and  _305
REMARK  114  A    between atoms: _305  and  _306
REMARK  115  A    between atoms: _315  and  _317
REMARK  116  A    between atoms: _317  and  _318
REMARK  117  A    between atoms: _317  and  _320
REMARK  118  A    between atoms: _320  and  _321
REMARK  119  A    between atoms: _324  and  _326
REMARK  120  A    between atoms: _326  and  _327
REMARK  121  A    between atoms: _330  and  _332
REMARK  122  A    between atoms: _332  and  _333
REMARK  123  A    between atoms: _332  and  _335
REMARK  124  A    between atoms: _335  and  _336
REMARK  125  A    between atoms: _336  and  _337
REMARK  126  A    between atoms: _340  and  _342
REMARK  127  A    between atoms: _342  and  _343
REMARK  128  A    between atoms: _342  and  _345
REMARK  129  A    between atoms: _345  and  _346
REMARK  130  A    between atoms: _351  and  _353
REMARK  131  A    between atoms: _353  and  _354
REMARK  132  A    between atoms: _353  and  _356
REMARK  133  A    between atoms: _356  and  _357
REMARK  134  A    between atoms: _360  and  _362
REMARK  135  A    between atoms: _362  and  _363
REMARK  136  A    between atoms: _362  and  _365
REMARK  137  A    between atoms: _365  and  _366
REMARK  138  A    between atoms: _366  and  _367
REMARK  139  A    between atoms: _367  and  _368
REMARK  140  A    between atoms: _377  and  _379
REMARK  141  A    between atoms: _379  and  _380
REMARK  142  A    between atoms: _382  and  _384
REMARK  143  A    between atoms: _384  and  _385
REMARK  144  A    between atoms: _384  and  _387
REMARK  145  A    between atoms: _387  and  _388
REMARK  146  A    between atoms: _390  and  _392
REMARK  147  A    between atoms: _392  and  _393
REMARK  148  A    between atoms: _392  and  _395
REMARK  149  A    between atoms: _395  and  _396
REMARK  150  A    between atoms: _402  and  _404
REMARK  151  A    between atoms: _404  and  _405
REMARK  152  A    between atoms: _407  and  _409
REMARK  153  A    between atoms: _409  and  _410
REMARK  154  A    between atoms: _409  and  _412
REMARK  155  A    between atoms: _412  and  _413
REMARK  156  A    between atoms: _416  and  _418
REMARK  157  A    between atoms: _418  and  _419
REMARK  158  A    between atoms: _418  and  _421
REMARK  159  A    between atoms: _421  and  _422
REMARK                            x       y       z     vdW  Elec       q    Type
REMARK                         _______ _______ _______ _____ _____    ______ ____
ROOT
ATOM      1  O   HOH     1      -0.547  25.467  33.287  0.00  0.00    +0.000 OA
ENDROOT
TORSDOF 0
