REMARK  Name = ../refined-set-2016/3n76/3n76_pocket.pdb
REMARK  240 active torsions:
REMARK  status: ('A' for Active; 'I' for Inactive)
REMARK    1  A    between atoms: _1  and  _3
REMARK    2  A    between atoms: _3  and  _4
REMARK    3  A    between atoms: _3  and  _6
REMARK    4  A    between atoms: _6  and  _7
REMARK    5  A    between atoms: _12  and  _14
REMARK    6  A    between atoms: _14  and  _15
REMARK    7  A    between atoms: _18  and  _19
REMARK    8  A    between atoms: _24  and  _26
REMARK    9  A    between atoms: _26  and  _27
REMARK   10  A    between atoms: _26  and  _29
REMARK   11  A    between atoms: _29  and  _30
REMARK   12  A    between atoms: _35  and  _37
REMARK   13  A    between atoms: _37  and  _38
REMARK   14  A    between atoms: _37  and  _40
REMARK   15  A    between atoms: _40  and  _41
REMARK   16  A    between atoms: _44  and  _46
REMARK   17  A    between atoms: _46  and  _47
REMARK   18  A    between atoms: _49  and  _51
REMARK   19  A    between atoms: _51  and  _52
REMARK   20  A    between atoms: _51  and  _54
REMARK   21  A    between atoms: _54  and  _55
REMARK   22  A    between atoms: _55  and  _56
REMARK   23  A    between atoms: _56  and  _57
REMARK   24  A    between atoms: _66  and  _68
REMARK   25  A    between atoms: _68  and  _69
REMARK   26  A    between atoms: _68  and  _71
REMARK   27  A    between atoms: _71  and  _72
REMARK   28  A    between atoms: _75  and  _77
REMARK   29  A    between atoms: _77  and  _78
REMARK   30  A    between atoms: _80  and  _82
REMARK   31  A    between atoms: _82  and  _83
REMARK   32  A    between atoms: _82  and  _85
REMARK   33  A    between atoms: _85  and  _86
REMARK   34  A    between atoms: _86  and  _87
REMARK   35  A    between atoms: _87  and  _88
REMARK   36  A    between atoms: _97  and  _99
REMARK   37  A    between atoms: _99  and  _100
REMARK   38  A    between atoms: _99  and  _102
REMARK   39  A    between atoms: _102  and  _103
REMARK   40  A    between atoms: _103  and  _104
REMARK   41  A    between atoms: _104  and  _105
REMARK   42  A    between atoms: _114  and  _116
REMARK   43  A    between atoms: _116  and  _117
REMARK   44  A    between atoms: _116  and  _119
REMARK   45  A    between atoms: _119  and  _120
REMARK   46  A    between atoms: _120  and  _121
REMARK   47  A    between atoms: _125  and  _126
REMARK   48  A    between atoms: _131  and  _133
REMARK   49  A    between atoms: _133  and  _134
REMARK   50  A    between atoms: _133  and  _136
REMARK   51  A    between atoms: _139  and  _141
REMARK   52  A    between atoms: _141  and  _142
REMARK   53  A    between atoms: _141  and  _144
REMARK   54  A    between atoms: _144  and  _145
REMARK   55  A    between atoms: _150  and  _151
REMARK   56  A    between atoms: _153  and  _155
REMARK   57  A    between atoms: _155  and  _156
REMARK   58  A    between atoms: _158  and  _160
REMARK   59  A    between atoms: _160  and  _161
REMARK   60  A    between atoms: _160  and  _163
REMARK   61  A    between atoms: _163  and  _164
REMARK   62  A    between atoms: _167  and  _169
REMARK   63  A    between atoms: _169  and  _170
REMARK   64  A    between atoms: _169  and  _172
REMARK   65  A    between atoms: _172  and  _173
REMARK   66  A    between atoms: _176  and  _178
REMARK   67  A    between atoms: _178  and  _179
REMARK   68  A    between atoms: _178  and  _181
REMARK   69  A    between atoms: _181  and  _182
REMARK   70  A    between atoms: _187  and  _189
REMARK   71  A    between atoms: _189  and  _190
REMARK   72  A    between atoms: _189  and  _192
REMARK   73  A    between atoms: _192  and  _193
REMARK   74  A    between atoms: _193  and  _194
REMARK   75  A    between atoms: _199  and  _201
REMARK   76  A    between atoms: _201  and  _202
REMARK   77  A    between atoms: _201  and  _204
REMARK   78  A    between atoms: _204  and  _205
REMARK   79  A    between atoms: _208  and  _210
REMARK   80  A    between atoms: _210  and  _211
REMARK   81  A    between atoms: _210  and  _213
REMARK   82  A    between atoms: _213  and  _214
REMARK   83  A    between atoms: _217  and  _219
REMARK   84  A    between atoms: _219  and  _220
REMARK   85  A    between atoms: _219  and  _222
REMARK   86  A    between atoms: _222  and  _223
REMARK   87  A    between atoms: _228  and  _230
REMARK   88  A    between atoms: _230  and  _231
REMARK   89  A    between atoms: _234  and  _236
REMARK   90  A    between atoms: _236  and  _237
REMARK   91  A    between atoms: _239  and  _241
REMARK   92  A    between atoms: _241  and  _242
REMARK   93  A    between atoms: _244  and  _246
REMARK   94  A    between atoms: _246  and  _247
REMARK   95  A    between atoms: _246  and  _249
REMARK   96  A    between atoms: _249  and  _250
REMARK   97  A    between atoms: _253  and  _255
REMARK   98  A    between atoms: _255  and  _256
REMARK   99  A    between atoms: _255  and  _258
REMARK  100  A    between atoms: _258  and  _259
REMARK  101  A    between atoms: _262  and  _264
REMARK  102  A    between atoms: _264  and  _265
REMARK  103  A    between atoms: _264  and  _267
REMARK  104  A    between atoms: _267  and  _268
REMARK  105  A    between atoms: _273  and  _275
REMARK  106  A    between atoms: _275  and  _276
REMARK  107  A    between atoms: _275  and  _278
REMARK  108  A    between atoms: _278  and  _279
REMARK  109  A    between atoms: _282  and  _284
REMARK  110  A    between atoms: _284  and  _285
REMARK  111  A    between atoms: _284  and  _287
REMARK  112  A    between atoms: _287  and  _288
REMARK  113  A    between atoms: _288  and  _289
REMARK  114  A    between atoms: _292  and  _294
REMARK  115  A    between atoms: _294  and  _295
REMARK  116  A    between atoms: _294  and  _297
REMARK  117  A    between atoms: _300  and  _302
REMARK  118  A    between atoms: _302  and  _303
REMARK  119  A    between atoms: _302  and  _305
REMARK  120  A    between atoms: _305  and  _306
REMARK  121  A    between atoms: _311  and  _313
REMARK  122  A    between atoms: _313  and  _314
REMARK  123  A    between atoms: _313  and  _316
REMARK  124  A    between atoms: _316  and  _317
REMARK  125  A    between atoms: _320  and  _322
REMARK  126  A    between atoms: _322  and  _323
REMARK  127  A    between atoms: _322  and  _325
REMARK  128  A    between atoms: _325  and  _326
REMARK  129  A    between atoms: _328  and  _330
REMARK  130  A    between atoms: _330  and  _331
REMARK  131  A    between atoms: _330  and  _333
REMARK  132  A    between atoms: _333  and  _334
REMARK  133  A    between atoms: _339  and  _341
REMARK  134  A    between atoms: _341  and  _342
REMARK  135  A    between atoms: _341  and  _344
REMARK  136  A    between atoms: _347  and  _349
REMARK  137  A    between atoms: _349  and  _350
REMARK  138  A    between atoms: _349  and  _352
REMARK  139  A    between atoms: _352  and  _353
REMARK  140  A    between atoms: _358  and  _360
REMARK  141  A    between atoms: _360  and  _361
REMARK  142  A    between atoms: _360  and  _363
REMARK  143  A    between atoms: _363  and  _364
REMARK  144  A    between atoms: _364  and  _365
REMARK  145  A    between atoms: _365  and  _366
REMARK  146  A    between atoms: _375  and  _377
REMARK  147  A    between atoms: _377  and  _378
REMARK  148  A    between atoms: _377  and  _380
REMARK  149  A    between atoms: _380  and  _381
REMARK  150  A    between atoms: _381  and  _382
REMARK  151  A    between atoms: _385  and  _387
REMARK  152  A    between atoms: _387  and  _388
REMARK  153  A    between atoms: _387  and  _390
REMARK  154  A    between atoms: _390  and  _391
REMARK  155  A    between atoms: _397  and  _399
REMARK  156  A    between atoms: _399  and  _400
REMARK  157  A    between atoms: _399  and  _402
REMARK  158  A    between atoms: _402  and  _403
REMARK  159  A    between atoms: _403  and  _404
REMARK  160  A    between atoms: _404  and  _405
REMARK  161  A    between atoms: _414  and  _416
REMARK  162  A    between atoms: _416  and  _417
REMARK  163  A    between atoms: _416  and  _419
REMARK  164  A    between atoms: _419  and  _420
REMARK  165  A    between atoms: _420  and  _421
REMARK  166  A    between atoms: _421  and  _422
REMARK  167  A    between atoms: _431  and  _433
REMARK  168  A    between atoms: _433  and  _434
REMARK  169  A    between atoms: _433  and  _436
REMARK  170  A    between atoms: _436  and  _437
REMARK  171  A    between atoms: _442  and  _444
REMARK  172  A    between atoms: _444  and  _445
REMARK  173  A    between atoms: _444  and  _447
REMARK  174  A    between atoms: _447  and  _448
REMARK  175  A    between atoms: _450  and  _452
REMARK  176  A    between atoms: _452  and  _453
REMARK  177  A    between atoms: _452  and  _455
REMARK  178  A    between atoms: _455  and  _456
REMARK  179  A    between atoms: _459  and  _461
REMARK  180  A    between atoms: _461  and  _462
REMARK  181  A    between atoms: _461  and  _464
REMARK  182  A    between atoms: _464  and  _465
REMARK  183  A    between atoms: _468  and  _470
REMARK  184  A    between atoms: _470  and  _471
REMARK  185  A    between atoms: _470  and  _473
REMARK  186  A    between atoms: _476  and  _478
REMARK  187  A    between atoms: _478  and  _479
REMARK  188  A    between atoms: _481  and  _483
REMARK  189  A    between atoms: _483  and  _484
REMARK  190  A    between atoms: _483  and  _486
REMARK  191  A    between atoms: _486  and  _487
REMARK  192  A    between atoms: _490  and  _492
REMARK  193  A    between atoms: _492  and  _493
REMARK  194  A    between atoms: _495  and  _497
REMARK  195  A    between atoms: _497  and  _498
REMARK  196  A    between atoms: _497  and  _500
REMARK  197  A    between atoms: _500  and  _501
REMARK  198  A    between atoms: _504  and  _506
REMARK  199  A    between atoms: _506  and  _507
REMARK  200  A    between atoms: _506  and  _509
REMARK  201  A    between atoms: _509  and  _510
REMARK  202  A    between atoms: _515  and  _516
REMARK  203  A    between atoms: _518  and  _520
REMARK  204  A    between atoms: _520  and  _521
REMARK  205  A    between atoms: _520  and  _523
REMARK  206  A    between atoms: _523  and  _524
REMARK  207  A    between atoms: _527  and  _529
REMARK  208  A    between atoms: _529  and  _530
REMARK  209  A    between atoms: _529  and  _532
REMARK  210  A    between atoms: _532  and  _533
REMARK  211  A    between atoms: _538  and  _540
REMARK  212  A    between atoms: _540  and  _541
REMARK  213  A    between atoms: _544  and  _546
REMARK  214  A    between atoms: _546  and  _547
REMARK  215  A    between atoms: _546  and  _549
REMARK  216  A    between atoms: _552  and  _554
REMARK  217  A    between atoms: _554  and  _555
REMARK  218  A    between atoms: _558  and  _560
REMARK  219  A    between atoms: _560  and  _561
REMARK  220  A    between atoms: _560  and  _563
REMARK  221  A    between atoms: _563  and  _564
REMARK  222  A    between atoms: _567  and  _569
REMARK  223  A    between atoms: _569  and  _570
REMARK  224  A    between atoms: _569  and  _572
REMARK  225  A    between atoms: _572  and  _573
REMARK  226  A    between atoms: _573  and  _574
REMARK  227  A    between atoms: _574  and  _575
REMARK  228  A    between atoms: _584  and  _586
REMARK  229  A    between atoms: _586  and  _587
REMARK  230  A    between atoms: _586  and  _589
REMARK  231  A    between atoms: _589  and  _590
REMARK  232  A    between atoms: _593  and  _595
REMARK  233  A    between atoms: _595  and  _596
REMARK  234  A    between atoms: _599  and  _601
REMARK  235  A    between atoms: _601  and  _602
REMARK  236  A    between atoms: _605  and  _607
REMARK  237  A    between atoms: _607  and  _608
REMARK  238  A    between atoms: _607  and  _610
REMARK  239  A    between atoms: _610  and  _611
REMARK  240  A    between atoms: _611  and  _612
REMARK                            x       y       z     vdW  Elec       q    Type
REMARK                         _______ _______ _______ _____ _____    ______ ____
ROOT
ATOM      1  C   ARG A   7     -33.048 -60.091 -41.552  0.00  0.00    +0.241 C 
ATOM      2  O   ARG A   7     -33.082 -61.218 -40.954  0.00  0.00    -0.273 OA
ATOM      3  N   LEU A   8     -32.507 -59.887 -42.740  0.00  0.00    -0.297 N 
ATOM      4  H   LEU A   8     -32.468 -58.915 -43.109  0.00  0.00    +0.150 HD
ENDROOT
BRANCH   3   5
ATOM      5  CA  LEU A   8     -31.956 -60.977 -43.566  0.00  0.00    +0.149 C 
BRANCH   5   6
ATOM      6  C   LEU A   8     -30.948 -61.792 -42.777  0.00  0.00    +0.241 C 
ATOM      7  O   LEU A   8     -30.147 -61.236 -42.011  0.00  0.00    -0.273 OA
ATOM      8  N   GLY A   9     -31.027 -63.106 -42.950  0.00  0.00    -0.295 N 
ATOM      9  H   GLY A   9     -31.891 -63.499 -43.374  0.00  0.00    +0.150 HD
BRANCH   8  10
ATOM     10  CA  GLY A   9     -29.950 -64.031 -42.570  0.00  0.00    +0.176 C 
BRANCH  10  11
ATOM     11  C   GLY A   9     -30.080 -64.383 -41.100  0.00  0.00    +0.243 C 
ATOM     12  N   ARG A  10     -30.209 -63.377 -40.245  0.00  0.00    -0.297 N 
ATOM     13  H   ARG A  10     -30.161 -62.390 -40.569  0.00  0.00    +0.150 HD
ATOM     14  O   GLY A   9     -30.108 -65.537 -40.736  0.00  0.00    -0.273 OA
BRANCH  12  15
ATOM     15  CA  ARG A  10     -30.422 -63.696 -38.828  0.00  0.00    +0.149 C 
BRANCH  15  16
ATOM     16  C   ARG A  10     -31.892 -64.000 -38.532  0.00  0.00    +0.241 C 
ATOM     17  O   ARG A  10     -32.251 -64.447 -37.413  0.00  0.00    -0.273 OA
ATOM     18  N   ARG A  11     -32.746 -63.804 -39.538  0.00  0.00    -0.297 N 
ATOM     19  H   ARG A  11     -32.442 -63.273 -40.379  0.00  0.00    +0.150 HD
BRANCH  18  20
ATOM     20  CA  ARG A  11     -34.111 -64.334 -39.462  0.00  0.00    +0.149 C 
BRANCH  20  21
ATOM     21  C   ARG A  11     -34.548 -65.060 -40.717  0.00  0.00    +0.241 C 
ATOM     22  N   GLU A  12     -35.419 -66.045 -40.508  0.00  0.00    -0.297 N 
ATOM     23  H   GLU A  12     -35.688 -66.281 -39.531  0.00  0.00    +0.150 HD
ATOM     24  O   ARG A  11     -34.127 -64.714 -41.849  0.00  0.00    -0.273 OA
BRANCH  22  25
ATOM     25  CA  GLU A  12     -36.009 -66.805 -41.608  0.00  0.00    +0.149 C 
BRANCH  25  26
ATOM     26  C   GLU A  12     -34.964 -67.358 -42.602  0.00  0.00    +0.244 C 
ATOM     27  N   PRO A  13     -33.861 -67.965 -42.076  0.00  0.00    -0.273 N 
ATOM     28  CD  PRO A  13     -33.529 -68.283 -40.667  0.00  0.00    +0.094 C 
ATOM     29  CG  PRO A  13     -32.431 -69.304 -40.757  0.00  0.00    +0.024 C 
ATOM     30  CB  PRO A  13     -31.715 -68.970 -42.099  0.00  0.00    +0.030 C 
ATOM     31  CA  PRO A  13     -32.854 -68.464 -43.021  0.00  0.00    +0.140 C 
ATOM     32  O   GLU A  12     -35.184 -67.296 -43.825  0.00  0.00    -0.273 OA
BRANCH  31  33
ATOM     33  C   PRO A  13     -33.410 -69.535 -43.985  0.00  0.00    +0.227 C 
ATOM     34  O   PRO A  13     -32.869 -69.703 -45.082  0.00  0.00    -0.286 OA
ENDBRANCH  31  33
ENDBRANCH  25  26
BRANCH  25  35
ATOM     35  CB  GLU A  12     -37.044 -65.955 -42.361  0.00  0.00    +0.041 C 
BRANCH  35  36
ATOM     36  CG  GLU A  12     -38.137 -65.409 -41.467  0.00  0.00    +0.116 C 
BRANCH  36  37
ATOM     37  CD  GLU A  12     -39.447 -65.151 -42.259  0.00  0.00    +0.365 C 
ATOM     38  OE2 GLU A  12     -40.525 -64.961 -41.618  0.00  0.00    -0.246 OA
ATOM     39  OE1 GLU A  12     -39.386 -65.161 -43.527  0.00  0.00    -0.246 OA
ENDBRANCH  36  37
ENDBRANCH  35  36
ENDBRANCH  25  35
ENDBRANCH  22  25
ENDBRANCH  20  21
BRANCH  20  40
ATOM     40  CB  ARG A  11     -35.116 -63.225 -39.217  0.00  0.00    +0.033 C 
BRANCH  40  41
ATOM     41  CG  ARG A  11     -34.785 -62.397 -38.024  0.00  0.00    +0.045 C 
BRANCH  41  42
ATOM     42  CD  ARG A  11     -35.233 -63.125 -36.759  0.00  0.00    +0.174 C 
BRANCH  42  43
ATOM     43  NE  ARG A  11     -34.529 -62.565 -35.614  0.00  0.00    -0.265 N 
ATOM     44  CZ  ARG A  11     -34.731 -62.948 -34.355  0.00  0.00    +0.342 C 
ATOM     45  NH2 ARG A  11     -34.039 -62.357 -33.372  0.00  0.00    -0.292 N 
ATOM     46 HH21 ARG A  11     -34.188 -62.647 -32.384  0.00  0.00    +0.255 HD
ATOM     47 HH22 ARG A  11     -33.353 -61.608 -33.596  0.00  0.00    +0.255 HD
ATOM     48  NH1 ARG A  11     -35.656 -63.892 -34.082  0.00  0.00    -0.292 N 
ATOM     49 HH11 ARG A  11     -35.817 -64.194 -33.100  0.00  0.00    +0.255 HD
ATOM     50 HH12 ARG A  11     -36.208 -64.318 -34.854  0.00  0.00    +0.255 HD
ATOM     51  HE  ARG A  11     -33.825 -61.820 -35.791  0.00  0.00    +0.259 HD
ENDBRANCH  42  43
ENDBRANCH  41  42
ENDBRANCH  40  41
ENDBRANCH  20  40
ENDBRANCH  18  20
ENDBRANCH  15  16
BRANCH  15  52
ATOM     52  CB  ARG A  10     -29.856 -62.590 -37.933  0.00  0.00    +0.033 C 
BRANCH  52  53
ATOM     53  CG  ARG A  10     -30.709 -61.363 -37.841  0.00  0.00    +0.045 C 
BRANCH  53  54
ATOM     54  CD  ARG A  10     -31.487 -61.395 -36.492  0.00  0.00    +0.174 C 
BRANCH  54  55
ATOM     55  NE  ARG A  10     -32.170 -60.135 -36.110  0.00  0.00    -0.265 N 
ATOM     56  HE  ARG A  10     -32.815 -60.180 -35.296  0.00  0.00    +0.259 HD
ATOM     57  CZ  ARG A  10     -32.038 -58.948 -36.709  0.00  0.00    +0.342 C 
ATOM     58  NH2 ARG A  10     -32.702 -57.918 -36.228  0.00  0.00    -0.292 N 
ATOM     59 HH21 ARG A  10     -33.315 -58.037 -35.397  0.00  0.00    +0.255 HD
ATOM     60 HH22 ARG A  10     -32.613 -56.985 -36.679  0.00  0.00    +0.255 HD
ATOM     61  NH1 ARG A  10     -31.231 -58.770 -37.749  0.00  0.00    -0.292 N 
ATOM     62 HH11 ARG A  10     -30.678 -59.568 -38.121  0.00  0.00    +0.255 HD
ATOM     63 HH12 ARG A  10     -31.152 -57.832 -38.192  0.00  0.00    +0.255 HD
ENDBRANCH  54  55
ENDBRANCH  53  54
ENDBRANCH  52  53
ENDBRANCH  15  52
ENDBRANCH  12  15
ENDBRANCH  10  11
ENDBRANCH   8  10
ENDBRANCH   5   6
BRANCH   5  64
ATOM     64  CB  LEU A   8     -31.256 -60.393 -44.819  0.00  0.00    +0.029 C 
BRANCH  64  65
ATOM     65  CG  LEU A   8     -31.895 -60.368 -46.206  0.00  0.00    +0.002 C 
ATOM     66  CD2 LEU A   8     -32.305 -61.762 -46.705  0.00  0.00    +0.000 C 
ATOM     67  CD1 LEU A   8     -30.952 -59.665 -47.200  0.00  0.00    +0.000 C 
ENDBRANCH  64  65
ENDBRANCH   5  64
ENDBRANCH   3   5
BRANCH   1  68
ATOM     68  CA  ARG A   7     -33.631 -58.849 -40.895  0.00  0.00    +0.149 C 
BRANCH  68  71
ATOM     69  C   GLY A   6     -32.682 -56.768 -41.808  0.00  0.00    +0.243 C 
ATOM     70  O   GLY A   6     -31.647 -56.880 -41.106  0.00  0.00    -0.273 OA
ATOM     71  N   ARG A   7     -33.668 -57.639 -41.752  0.00  0.00    -0.297 N 
ATOM     72  H   ARG A   7     -34.512 -57.471 -42.336  0.00  0.00    +0.150 HD
BRANCH  69  73
ATOM     73  CA  GLY A   6     -32.879 -55.543 -42.713  0.00  0.00    +0.176 C 
BRANCH  73  75
ATOM     74  C   LEU A   5     -33.730 -56.695 -44.675  0.00  0.00    +0.241 C 
ATOM     75  N   GLY A   6     -33.918 -55.742 -43.770  0.00  0.00    -0.295 N 
ATOM     76  H   GLY A   6     -34.770 -55.146 -43.796  0.00  0.00    +0.150 HD
ATOM     77  O   LEU A   5     -32.592 -57.220 -44.863  0.00  0.00    -0.273 OA
BRANCH  74  78
ATOM     78  CA  LEU A   5     -34.947 -57.107 -45.533  0.00  0.00    +0.149 C 
BRANCH  78  81
ATOM     79  C   ASN A   4     -36.838 -56.990 -43.984  0.00  0.00    +0.241 C 
ATOM     80  O   ASN A   4     -36.335 -57.869 -43.291  0.00  0.00    -0.273 OA
ATOM     81  N   LEU A   5     -36.242 -56.519 -45.079  0.00  0.00    -0.297 N 
ATOM     82  H   LEU A   5     -36.678 -55.743 -45.616  0.00  0.00    +0.150 HD
BRANCH  79  83
ATOM     83  CA  ASN A   4     -38.215 -56.394 -43.641  0.00  0.00    +0.158 C 
BRANCH  83  85
ATOM     84  C   PRO A   3     -38.886 -54.903 -45.557  0.00  0.00    +0.241 C 
ATOM     85  N   ASN A   4     -38.465 -55.064 -44.304  0.00  0.00    -0.297 N 
ATOM     86  H   ASN A   4     -38.296 -54.207 -43.740  0.00  0.00    +0.150 HD
ATOM     87  O   PRO A   3     -39.033 -55.816 -46.365  0.00  0.00    -0.273 OA
BRANCH  84  91
ATOM     88  C   GLY A   2     -37.630 -53.195 -47.696  0.00  0.00    +0.246 C 
ATOM     89  O   GLY A   2     -36.736 -53.772 -47.045  0.00  0.00    -0.273 OA
ATOM     90  N   PRO A   3     -38.916 -53.084 -47.255  0.00  0.00    -0.272 N 
ATOM     91  CA  PRO A   3     -39.318 -53.479 -45.921  0.00  0.00    +0.152 C 
ATOM     92  CB  PRO A   3     -40.855 -53.424 -45.951  0.00  0.00    +0.031 C 
ATOM     93  CG  PRO A   3     -41.196 -52.436 -47.031  0.00  0.00    +0.024 C 
ATOM     94  CD  PRO A   3     -40.030 -52.511 -48.037  0.00  0.00    +0.094 C 
BRANCH  88  95
ATOM     95  CA  GLY A   2     -37.274 -52.521 -49.040  0.00  0.00    +0.176 C 
BRANCH  95  98
ATOM     96  C   ASN A   1     -34.804 -52.466 -49.423  0.00  0.00    +0.239 C 
ATOM     97  O   ASN A   1     -34.608 -51.453 -48.762  0.00  0.00    -0.274 OA
ATOM     98  N   GLY A   2     -36.021 -53.028 -49.654  0.00  0.00    -0.296 N 
ATOM     99  H   GLY A   2     -36.076 -53.850 -50.289  0.00  0.00    +0.150 HD
BRANCH  96 100
ATOM    100  CA  ASN A   1     -33.638 -53.111 -50.139  0.00  0.00    +0.154 C 
BRANCH 100 101
ATOM    101  N   ASN A   1     -32.763 -52.110 -50.784  0.00  0.00    -0.238 NA
ATOM    102  H   ASN A   1     -32.093 -51.576 -50.195  0.00  0.00    +0.142 HD
ENDBRANCH 100 101
BRANCH 100 103
ATOM    103  CB  ASN A   1     -32.852 -53.986 -49.219  0.00  0.00    +0.111 C 
BRANCH 103 104
ATOM    104  CG  ASN A   1     -32.100 -55.059 -49.977  0.00  0.00    +0.221 C 
ATOM    105  ND2 ASN A   1     -30.946 -55.467 -49.467  0.00  0.00    -0.329 N 
ATOM    106 HD21 ASN A   1     -30.619 -55.091 -48.554  0.00  0.00    +0.145 HD
ATOM    107 HD22 ASN A   1     -30.368 -56.163 -49.980  0.00  0.00    +0.145 HD
ATOM    108  OD1 ASN A   1     -32.542 -55.461 -51.046  0.00  0.00    -0.275 OA
ENDBRANCH 103 104
ENDBRANCH 100 103
ENDBRANCH  96 100
ENDBRANCH  95  98
ENDBRANCH  88  95
ENDBRANCH  84  91
ENDBRANCH  83  85
BRANCH  83 109
ATOM    109  CB  ASN A   4     -39.327 -57.427 -43.950  0.00  0.00    +0.114 C 
BRANCH 109 110
ATOM    110  CG  ASN A   4     -40.678 -56.964 -43.473  0.00  0.00    +0.222 C 
ATOM    111  OD1 ASN A   4     -40.813 -56.473 -42.325  0.00  0.00    -0.275 OA
ATOM    112  ND2 ASN A   4     -41.691 -57.055 -44.356  0.00  0.00    -0.329 N 
ATOM    113 HD21 ASN A   4     -42.638 -56.710 -44.099  0.00  0.00    +0.145 HD
ATOM    114 HD22 ASN A   4     -41.527 -57.471 -45.295  0.00  0.00    +0.145 HD
ENDBRANCH 109 110
ENDBRANCH  83 109
ENDBRANCH  79  83
ENDBRANCH  78  81
BRANCH  78 115
ATOM    115  CB  LEU A   5     -34.675 -56.637 -46.946  0.00  0.00    +0.029 C 
BRANCH 115 116
ATOM    116  CG  LEU A   5     -35.600 -57.388 -47.933  0.00  0.00    +0.002 C 
ATOM    117  CD2 LEU A   5     -34.998 -58.728 -48.246  0.00  0.00    +0.000 C 
ATOM    118  CD1 LEU A   5     -35.739 -56.595 -49.224  0.00  0.00    +0.000 C 
ENDBRANCH 115 116
ENDBRANCH  78 115
ENDBRANCH  74  78
ENDBRANCH  73  75
ENDBRANCH  69  73
ENDBRANCH  68  71
BRANCH  68 119
ATOM    119  CB  ARG A   7     -35.033 -59.229 -40.499  0.00  0.00    +0.033 C 
BRANCH 119 120
ATOM    120  CG  ARG A   7     -36.012 -58.116 -40.340  0.00  0.00    +0.045 C 
BRANCH 120 121
ATOM    121  CD  ARG A   7     -36.347 -57.821 -38.951  0.00  0.00    +0.174 C 
BRANCH 121 122
ATOM    122  NE  ARG A   7     -36.913 -58.973 -38.244  0.00  0.00    -0.265 N 
ATOM    123  CZ  ARG A   7     -36.745 -59.094 -36.941  0.00  0.00    +0.342 C 
ATOM    124  NH2 ARG A   7     -36.004 -58.178 -36.307  0.00  0.00    -0.292 N 
ATOM    125 HH21 ARG A   7     -35.855 -58.249 -35.280  0.00  0.00    +0.255 HD
ATOM    126 HH22 ARG A   7     -35.577 -57.395 -36.841  0.00  0.00    +0.255 HD
ATOM    127  NH1 ARG A   7     -37.238 -60.121 -36.307  0.00  0.00    -0.292 N 
ATOM    128 HH11 ARG A   7     -37.103 -60.212 -35.280  0.00  0.00    +0.255 HD
ATOM    129 HH12 ARG A   7     -37.766 -60.849 -36.828  0.00  0.00    +0.255 HD
ATOM    130  HE  ARG A   7     -37.447 -59.695 -38.769  0.00  0.00    +0.259 HD
ENDBRANCH 121 122
ENDBRANCH 120 121
ENDBRANCH 119 120
ENDBRANCH  68 119
ENDBRANCH   1  68
TORSDOF 47
REMARK  Name = ../refined-set-2016/3n76/3n76_pocket.pdb
REMARK  240 active torsions:
REMARK  status: ('A' for Active; 'I' for Inactive)
REMARK    1  A    between atoms: _1  and  _3
REMARK    2  A    between atoms: _3  and  _4
REMARK    3  A    between atoms: _3  and  _6
REMARK    4  A    between atoms: _6  and  _7
REMARK    5  A    between atoms: _12  and  _14
REMARK    6  A    between atoms: _14  and  _15
REMARK    7  A    between atoms: _18  and  _19
REMARK    8  A    between atoms: _24  and  _26
REMARK    9  A    between atoms: _26  and  _27
REMARK   10  A    between atoms: _26  and  _29
REMARK   11  A    between atoms: _29  and  _30
REMARK   12  A    between atoms: _35  and  _37
REMARK   13  A    between atoms: _37  and  _38
REMARK   14  A    between atoms: _37  and  _40
REMARK   15  A    between atoms: _40  and  _41
REMARK   16  A    between atoms: _44  and  _46
REMARK   17  A    between atoms: _46  and  _47
REMARK   18  A    between atoms: _49  and  _51
REMARK   19  A    between atoms: _51  and  _52
REMARK   20  A    between atoms: _51  and  _54
REMARK   21  A    between atoms: _54  and  _55
REMARK   22  A    between atoms: _55  and  _56
REMARK   23  A    between atoms: _56  and  _57
REMARK   24  A    between atoms: _66  and  _68
REMARK   25  A    between atoms: _68  and  _69
REMARK   26  A    between atoms: _68  and  _71
REMARK   27  A    between atoms: _71  and  _72
REMARK   28  A    between atoms: _75  and  _77
REMARK   29  A    between atoms: _77  and  _78
REMARK   30  A    between atoms: _80  and  _82
REMARK   31  A    between atoms: _82  and  _83
REMARK   32  A    between atoms: _82  and  _85
REMARK   33  A    between atoms: _85  and  _86
REMARK   34  A    between atoms: _86  and  _87
REMARK   35  A    between atoms: _87  and  _88
REMARK   36  A    between atoms: _97  and  _99
REMARK   37  A    between atoms: _99  and  _100
REMARK   38  A    between atoms: _99  and  _102
REMARK   39  A    between atoms: _102  and  _103
REMARK   40  A    between atoms: _103  and  _104
REMARK   41  A    between atoms: _104  and  _105
REMARK   42  A    between atoms: _114  and  _116
REMARK   43  A    between atoms: _116  and  _117
REMARK   44  A    between atoms: _116  and  _119
REMARK   45  A    between atoms: _119  and  _120
REMARK   46  A    between atoms: _120  and  _121
REMARK   47  A    between atoms: _125  and  _126
REMARK   48  A    between atoms: _131  and  _133
REMARK   49  A    between atoms: _133  and  _134
REMARK   50  A    between atoms: _133  and  _136
REMARK   51  A    between atoms: _139  and  _141
REMARK   52  A    between atoms: _141  and  _142
REMARK   53  A    between atoms: _141  and  _144
REMARK   54  A    between atoms: _144  and  _145
REMARK   55  A    between atoms: _150  and  _151
REMARK   56  A    between atoms: _153  and  _155
REMARK   57  A    between atoms: _155  and  _156
REMARK   58  A    between atoms: _158  and  _160
REMARK   59  A    between atoms: _160  and  _161
REMARK   60  A    between atoms: _160  and  _163
REMARK   61  A    between atoms: _163  and  _164
REMARK   62  A    between atoms: _167  and  _169
REMARK   63  A    between atoms: _169  and  _170
REMARK   64  A    between atoms: _169  and  _172
REMARK   65  A    between atoms: _172  and  _173
REMARK   66  A    between atoms: _176  and  _178
REMARK   67  A    between atoms: _178  and  _179
REMARK   68  A    between atoms: _178  and  _181
REMARK   69  A    between atoms: _181  and  _182
REMARK   70  A    between atoms: _187  and  _189
REMARK   71  A    between atoms: _189  and  _190
REMARK   72  A    between atoms: _189  and  _192
REMARK   73  A    between atoms: _192  and  _193
REMARK   74  A    between atoms: _193  and  _194
REMARK   75  A    between atoms: _199  and  _201
REMARK   76  A    between atoms: _201  and  _202
REMARK   77  A    between atoms: _201  and  _204
REMARK   78  A    between atoms: _204  and  _205
REMARK   79  A    between atoms: _208  and  _210
REMARK   80  A    between atoms: _210  and  _211
REMARK   81  A    between atoms: _210  and  _213
REMARK   82  A    between atoms: _213  and  _214
REMARK   83  A    between atoms: _217  and  _219
REMARK   84  A    between atoms: _219  and  _220
REMARK   85  A    between atoms: _219  and  _222
REMARK   86  A    between atoms: _222  and  _223
REMARK   87  A    between atoms: _228  and  _230
REMARK   88  A    between atoms: _230  and  _231
REMARK   89  A    between atoms: _234  and  _236
REMARK   90  A    between atoms: _236  and  _237
REMARK   91  A    between atoms: _239  and  _241
REMARK   92  A    between atoms: _241  and  _242
REMARK   93  A    between atoms: _244  and  _246
REMARK   94  A    between atoms: _246  and  _247
REMARK   95  A    between atoms: _246  and  _249
REMARK   96  A    between atoms: _249  and  _250
REMARK   97  A    between atoms: _253  and  _255
REMARK   98  A    between atoms: _255  and  _256
REMARK   99  A    between atoms: _255  and  _258
REMARK  100  A    between atoms: _258  and  _259
REMARK  101  A    between atoms: _262  and  _264
REMARK  102  A    between atoms: _264  and  _265
REMARK  103  A    between atoms: _264  and  _267
REMARK  104  A    between atoms: _267  and  _268
REMARK  105  A    between atoms: _273  and  _275
REMARK  106  A    between atoms: _275  and  _276
REMARK  107  A    between atoms: _275  and  _278
REMARK  108  A    between atoms: _278  and  _279
REMARK  109  A    between atoms: _282  and  _284
REMARK  110  A    between atoms: _284  and  _285
REMARK  111  A    between atoms: _284  and  _287
REMARK  112  A    between atoms: _287  and  _288
REMARK  113  A    between atoms: _288  and  _289
REMARK  114  A    between atoms: _292  and  _294
REMARK  115  A    between atoms: _294  and  _295
REMARK  116  A    between atoms: _294  and  _297
REMARK  117  A    between atoms: _300  and  _302
REMARK  118  A    between atoms: _302  and  _303
REMARK  119  A    between atoms: _302  and  _305
REMARK  120  A    between atoms: _305  and  _306
REMARK  121  A    between atoms: _311  and  _313
REMARK  122  A    between atoms: _313  and  _314
REMARK  123  A    between atoms: _313  and  _316
REMARK  124  A    between atoms: _316  and  _317
REMARK  125  A    between atoms: _320  and  _322
REMARK  126  A    between atoms: _322  and  _323
REMARK  127  A    between atoms: _322  and  _325
REMARK  128  A    between atoms: _325  and  _326
REMARK  129  A    between atoms: _328  and  _330
REMARK  130  A    between atoms: _330  and  _331
REMARK  131  A    between atoms: _330  and  _333
REMARK  132  A    between atoms: _333  and  _334
REMARK  133  A    between atoms: _339  and  _341
REMARK  134  A    between atoms: _341  and  _342
REMARK  135  A    between atoms: _341  and  _344
REMARK  136  A    between atoms: _347  and  _349
REMARK  137  A    between atoms: _349  and  _350
REMARK  138  A    between atoms: _349  and  _352
REMARK  139  A    between atoms: _352  and  _353
REMARK  140  A    between atoms: _358  and  _360
REMARK  141  A    between atoms: _360  and  _361
REMARK  142  A    between atoms: _360  and  _363
REMARK  143  A    between atoms: _363  and  _364
REMARK  144  A    between atoms: _364  and  _365
REMARK  145  A    between atoms: _365  and  _366
REMARK  146  A    between atoms: _375  and  _377
REMARK  147  A    between atoms: _377  and  _378
REMARK  148  A    between atoms: _377  and  _380
REMARK  149  A    between atoms: _380  and  _381
REMARK  150  A    between atoms: _381  and  _382
REMARK  151  A    between atoms: _385  and  _387
REMARK  152  A    between atoms: _387  and  _388
REMARK  153  A    between atoms: _387  and  _390
REMARK  154  A    between atoms: _390  and  _391
REMARK  155  A    between atoms: _397  and  _399
REMARK  156  A    between atoms: _399  and  _400
REMARK  157  A    between atoms: _399  and  _402
REMARK  158  A    between atoms: _402  and  _403
REMARK  159  A    between atoms: _403  and  _404
REMARK  160  A    between atoms: _404  and  _405
REMARK  161  A    between atoms: _414  and  _416
REMARK  162  A    between atoms: _416  and  _417
REMARK  163  A    between atoms: _416  and  _419
REMARK  164  A    between atoms: _419  and  _420
REMARK  165  A    between atoms: _420  and  _421
REMARK  166  A    between atoms: _421  and  _422
REMARK  167  A    between atoms: _431  and  _433
REMARK  168  A    between atoms: _433  and  _434
REMARK  169  A    between atoms: _433  and  _436
REMARK  170  A    between atoms: _436  and  _437
REMARK  171  A    between atoms: _442  and  _444
REMARK  172  A    between atoms: _444  and  _445
REMARK  173  A    between atoms: _444  and  _447
REMARK  174  A    between atoms: _447  and  _448
REMARK  175  A    between atoms: _450  and  _452
REMARK  176  A    between atoms: _452  and  _453
REMARK  177  A    between atoms: _452  and  _455
REMARK  178  A    between atoms: _455  and  _456
REMARK  179  A    between atoms: _459  and  _461
REMARK  180  A    between atoms: _461  and  _462
REMARK  181  A    between atoms: _461  and  _464
REMARK  182  A    between atoms: _464  and  _465
REMARK  183  A    between atoms: _468  and  _470
REMARK  184  A    between atoms: _470  and  _471
REMARK  185  A    between atoms: _470  and  _473
REMARK  186  A    between atoms: _476  and  _478
REMARK  187  A    between atoms: _478  and  _479
REMARK  188  A    between atoms: _481  and  _483
REMARK  189  A    between atoms: _483  and  _484
REMARK  190  A    between atoms: _483  and  _486
REMARK  191  A    between atoms: _486  and  _487
REMARK  192  A    between atoms: _490  and  _492
REMARK  193  A    between atoms: _492  and  _493
REMARK  194  A    between atoms: _495  and  _497
REMARK  195  A    between atoms: _497  and  _498
REMARK  196  A    between atoms: _497  and  _500
REMARK  197  A    between atoms: _500  and  _501
REMARK  198  A    between atoms: _504  and  _506
REMARK  199  A    between atoms: _506  and  _507
REMARK  200  A    between atoms: _506  and  _509
REMARK  201  A    between atoms: _509  and  _510
REMARK  202  A    between atoms: _515  and  _516
REMARK  203  A    between atoms: _518  and  _520
REMARK  204  A    between atoms: _520  and  _521
REMARK  205  A    between atoms: _520  and  _523
REMARK  206  A    between atoms: _523  and  _524
REMARK  207  A    between atoms: _527  and  _529
REMARK  208  A    between atoms: _529  and  _530
REMARK  209  A    between atoms: _529  and  _532
REMARK  210  A    between atoms: _532  and  _533
REMARK  211  A    between atoms: _538  and  _540
REMARK  212  A    between atoms: _540  and  _541
REMARK  213  A    between atoms: _544  and  _546
REMARK  214  A    between atoms: _546  and  _547
REMARK  215  A    between atoms: _546  and  _549
REMARK  216  A    between atoms: _552  and  _554
REMARK  217  A    between atoms: _554  and  _555
REMARK  218  A    between atoms: _558  and  _560
REMARK  219  A    between atoms: _560  and  _561
REMARK  220  A    between atoms: _560  and  _563
REMARK  221  A    between atoms: _563  and  _564
REMARK  222  A    between atoms: _567  and  _569
REMARK  223  A    between atoms: _569  and  _570
REMARK  224  A    between atoms: _569  and  _572
REMARK  225  A    between atoms: _572  and  _573
REMARK  226  A    between atoms: _573  and  _574
REMARK  227  A    between atoms: _574  and  _575
REMARK  228  A    between atoms: _584  and  _586
REMARK  229  A    between atoms: _586  and  _587
REMARK  230  A    between atoms: _586  and  _589
REMARK  231  A    between atoms: _589  and  _590
REMARK  232  A    between atoms: _593  and  _595
REMARK  233  A    between atoms: _595  and  _596
REMARK  234  A    between atoms: _599  and  _601
REMARK  235  A    between atoms: _601  and  _602
REMARK  236  A    between atoms: _605  and  _607
REMARK  237  A    between atoms: _607  and  _608
REMARK  238  A    between atoms: _607  and  _610
REMARK  239  A    between atoms: _610  and  _611
REMARK  240  A    between atoms: _611  and  _612
REMARK                            x       y       z     vdW  Elec       q    Type
REMARK                         _______ _______ _______ _____ _____    ______ ____
ROOT
ATOM      1  CA  TYR A   2     -34.329 -65.829 -47.527  0.00  0.00    +0.153 C 
ENDROOT
BRANCH   1   3
ATOM      2  C   VAL A   1     -35.822 -67.744 -47.598  0.00  0.00    +0.238 C 
ATOM      3  N   TYR A   2     -35.079 -66.896 -46.897  0.00  0.00    -0.297 N 
ATOM      4  H   TYR A   2     -35.034 -67.001 -45.863  0.00  0.00    +0.150 HD
ATOM      5  O   VAL A   1     -35.776 -67.824 -48.842  0.00  0.00    -0.274 OA
BRANCH   2   6
ATOM      6  CA  VAL A   1     -36.748 -68.627 -46.774  0.00  0.00    +0.145 C 
BRANCH   6   7
ATOM      7  CB  VAL A   1     -37.946 -67.873 -46.241  0.00  0.00    +0.025 C 
ATOM      8  CG2 VAL A   1     -38.718 -68.822 -45.302  0.00  0.00    +0.002 C 
ATOM      9  CG1 VAL A   1     -38.861 -67.327 -47.368  0.00  0.00    +0.002 C 
ENDBRANCH   6   7
BRANCH   6  10
ATOM     10  N   VAL A   1     -36.060 -69.294 -45.643  0.00  0.00    -0.238 NA
ATOM     11  H   VAL A   1     -35.879 -68.775 -44.760  0.00  0.00    +0.142 HD
ENDBRANCH   6  10
ENDBRANCH   2   6
ENDBRANCH   1   3
BRANCH   1  12
ATOM     12  C   TYR A   2     -32.810 -66.067 -47.360  0.00  0.00    +0.241 C 
ATOM     13  N   GLY A   3     -32.411 -67.210 -46.772  0.00  0.00    -0.296 N 
ATOM     14  H   GLY A   3     -33.110 -67.845 -46.335  0.00  0.00    +0.150 HD
ATOM     15  O   TYR A   2     -32.015 -65.241 -47.757  0.00  0.00    -0.273 OA
BRANCH  13  16
ATOM     16  CA  GLY A   3     -31.013 -67.549 -46.751  0.00  0.00    +0.163 C 
BRANCH  16  17
ATOM     17  C   GLY A   3     -30.293 -67.050 -45.492  0.00  0.00    +0.229 C 
ATOM     18  O   GLY A   3     -30.778 -66.170 -44.751  0.00  0.00    -0.286 OA
ENDBRANCH  16  17
ENDBRANCH  13  16
ENDBRANCH   1  12
BRANCH   1  19
ATOM     19  CB  TYR A   2     -34.798 -64.454 -47.023  0.00  0.00    +0.055 C 
BRANCH  19  20
ATOM     20  CG  TYR A   2     -36.277 -64.178 -47.297  0.00  0.00    -0.020 A 
ATOM     21  CD2 TYR A   2     -37.165 -64.002 -46.264  0.00  0.00    -0.001 A 
ATOM     22  CE2 TYR A   2     -38.510 -63.755 -46.511  0.00  0.00    +0.036 A 
ATOM     23  CZ  TYR A   2     -38.970 -63.681 -47.817  0.00  0.00    +0.134 A 
ATOM     24  CE1 TYR A   2     -38.060 -63.815 -48.886  0.00  0.00    +0.036 A 
ATOM     25  CD1 TYR A   2     -36.765 -64.077 -48.613  0.00  0.00    -0.001 A 
BRANCH  23  26
ATOM     26  OH  TYR A   2     -40.298 -63.451 -48.089  0.00  0.00    -0.506 OA
ATOM     27  HH  TYR A   2     -40.801 -63.382 -47.239  0.00  0.00    +0.292 HD
ENDBRANCH  23  26
ENDBRANCH  19  20
ENDBRANCH   1  19
TORSDOF 10
REMARK  Name = ../refined-set-2016/3n76/3n76_pocket.pdb
REMARK  240 active torsions:
REMARK  status: ('A' for Active; 'I' for Inactive)
REMARK    1  A    between atoms: _1  and  _3
REMARK    2  A    between atoms: _3  and  _4
REMARK    3  A    between atoms: _3  and  _6
REMARK    4  A    between atoms: _6  and  _7
REMARK    5  A    between atoms: _12  and  _14
REMARK    6  A    between atoms: _14  and  _15
REMARK    7  A    between atoms: _18  and  _19
REMARK    8  A    between atoms: _24  and  _26
REMARK    9  A    between atoms: _26  and  _27
REMARK   10  A    between atoms: _26  and  _29
REMARK   11  A    between atoms: _29  and  _30
REMARK   12  A    between atoms: _35  and  _37
REMARK   13  A    between atoms: _37  and  _38
REMARK   14  A    between atoms: _37  and  _40
REMARK   15  A    between atoms: _40  and  _41
REMARK   16  A    between atoms: _44  and  _46
REMARK   17  A    between atoms: _46  and  _47
REMARK   18  A    between atoms: _49  and  _51
REMARK   19  A    between atoms: _51  and  _52
REMARK   20  A    between atoms: _51  and  _54
REMARK   21  A    between atoms: _54  and  _55
REMARK   22  A    between atoms: _55  and  _56
REMARK   23  A    between atoms: _56  and  _57
REMARK   24  A    between atoms: _66  and  _68
REMARK   25  A    between atoms: _68  and  _69
REMARK   26  A    between atoms: _68  and  _71
REMARK   27  A    between atoms: _71  and  _72
REMARK   28  A    between atoms: _75  and  _77
REMARK   29  A    between atoms: _77  and  _78
REMARK   30  A    between atoms: _80  and  _82
REMARK   31  A    between atoms: _82  and  _83
REMARK   32  A    between atoms: _82  and  _85
REMARK   33  A    between atoms: _85  and  _86
REMARK   34  A    between atoms: _86  and  _87
REMARK   35  A    between atoms: _87  and  _88
REMARK   36  A    between atoms: _97  and  _99
REMARK   37  A    between atoms: _99  and  _100
REMARK   38  A    between atoms: _99  and  _102
REMARK   39  A    between atoms: _102  and  _103
REMARK   40  A    between atoms: _103  and  _104
REMARK   41  A    between atoms: _104  and  _105
REMARK   42  A    between atoms: _114  and  _116
REMARK   43  A    between atoms: _116  and  _117
REMARK   44  A    between atoms: _116  and  _119
REMARK   45  A    between atoms: _119  and  _120
REMARK   46  A    between atoms: _120  and  _121
REMARK   47  A    between atoms: _125  and  _126
REMARK   48  A    between atoms: _131  and  _133
REMARK   49  A    between atoms: _133  and  _134
REMARK   50  A    between atoms: _133  and  _136
REMARK   51  A    between atoms: _139  and  _141
REMARK   52  A    between atoms: _141  and  _142
REMARK   53  A    between atoms: _141  and  _144
REMARK   54  A    between atoms: _144  and  _145
REMARK   55  A    between atoms: _150  and  _151
REMARK   56  A    between atoms: _153  and  _155
REMARK   57  A    between atoms: _155  and  _156
REMARK   58  A    between atoms: _158  and  _160
REMARK   59  A    between atoms: _160  and  _161
REMARK   60  A    between atoms: _160  and  _163
REMARK   61  A    between atoms: _163  and  _164
REMARK   62  A    between atoms: _167  and  _169
REMARK   63  A    between atoms: _169  and  _170
REMARK   64  A    between atoms: _169  and  _172
REMARK   65  A    between atoms: _172  and  _173
REMARK   66  A    between atoms: _176  and  _178
REMARK   67  A    between atoms: _178  and  _179
REMARK   68  A    between atoms: _178  and  _181
REMARK   69  A    between atoms: _181  and  _182
REMARK   70  A    between atoms: _187  and  _189
REMARK   71  A    between atoms: _189  and  _190
REMARK   72  A    between atoms: _189  and  _192
REMARK   73  A    between atoms: _192  and  _193
REMARK   74  A    between atoms: _193  and  _194
REMARK   75  A    between atoms: _199  and  _201
REMARK   76  A    between atoms: _201  and  _202
REMARK   77  A    between atoms: _201  and  _204
REMARK   78  A    between atoms: _204  and  _205
REMARK   79  A    between atoms: _208  and  _210
REMARK   80  A    between atoms: _210  and  _211
REMARK   81  A    between atoms: _210  and  _213
REMARK   82  A    between atoms: _213  and  _214
REMARK   83  A    between atoms: _217  and  _219
REMARK   84  A    between atoms: _219  and  _220
REMARK   85  A    between atoms: _219  and  _222
REMARK   86  A    between atoms: _222  and  _223
REMARK   87  A    between atoms: _228  and  _230
REMARK   88  A    between atoms: _230  and  _231
REMARK   89  A    between atoms: _234  and  _236
REMARK   90  A    between atoms: _236  and  _237
REMARK   91  A    between atoms: _239  and  _241
REMARK   92  A    between atoms: _241  and  _242
REMARK   93  A    between atoms: _244  and  _246
REMARK   94  A    between atoms: _246  and  _247
REMARK   95  A    between atoms: _246  and  _249
REMARK   96  A    between atoms: _249  and  _250
REMARK   97  A    between atoms: _253  and  _255
REMARK   98  A    between atoms: _255  and  _256
REMARK   99  A    between atoms: _255  and  _258
REMARK  100  A    between atoms: _258  and  _259
REMARK  101  A    between atoms: _262  and  _264
REMARK  102  A    between atoms: _264  and  _265
REMARK  103  A    between atoms: _264  and  _267
REMARK  104  A    between atoms: _267  and  _268
REMARK  105  A    between atoms: _273  and  _275
REMARK  106  A    between atoms: _275  and  _276
REMARK  107  A    between atoms: _275  and  _278
REMARK  108  A    between atoms: _278  and  _279
REMARK  109  A    between atoms: _282  and  _284
REMARK  110  A    between atoms: _284  and  _285
REMARK  111  A    between atoms: _284  and  _287
REMARK  112  A    between atoms: _287  and  _288
REMARK  113  A    between atoms: _288  and  _289
REMARK  114  A    between atoms: _292  and  _294
REMARK  115  A    between atoms: _294  and  _295
REMARK  116  A    between atoms: _294  and  _297
REMARK  117  A    between atoms: _300  and  _302
REMARK  118  A    between atoms: _302  and  _303
REMARK  119  A    between atoms: _302  and  _305
REMARK  120  A    between atoms: _305  and  _306
REMARK  121  A    between atoms: _311  and  _313
REMARK  122  A    between atoms: _313  and  _314
REMARK  123  A    between atoms: _313  and  _316
REMARK  124  A    between atoms: _316  and  _317
REMARK  125  A    between atoms: _320  and  _322
REMARK  126  A    between atoms: _322  and  _323
REMARK  127  A    between atoms: _322  and  _325
REMARK  128  A    between atoms: _325  and  _326
REMARK  129  A    between atoms: _328  and  _330
REMARK  130  A    between atoms: _330  and  _331
REMARK  131  A    between atoms: _330  and  _333
REMARK  132  A    between atoms: _333  and  _334
REMARK  133  A    between atoms: _339  and  _341
REMARK  134  A    between atoms: _341  and  _342
REMARK  135  A    between atoms: _341  and  _344
REMARK  136  A    between atoms: _347  and  _349
REMARK  137  A    between atoms: _349  and  _350
REMARK  138  A    between atoms: _349  and  _352
REMARK  139  A    between atoms: _352  and  _353
REMARK  140  A    between atoms: _358  and  _360
REMARK  141  A    between atoms: _360  and  _361
REMARK  142  A    between atoms: _360  and  _363
REMARK  143  A    between atoms: _363  and  _364
REMARK  144  A    between atoms: _364  and  _365
REMARK  145  A    between atoms: _365  and  _366
REMARK  146  A    between atoms: _375  and  _377
REMARK  147  A    between atoms: _377  and  _378
REMARK  148  A    between atoms: _377  and  _380
REMARK  149  A    between atoms: _380  and  _381
REMARK  150  A    between atoms: _381  and  _382
REMARK  151  A    between atoms: _385  and  _387
REMARK  152  A    between atoms: _387  and  _388
REMARK  153  A    between atoms: _387  and  _390
REMARK  154  A    between atoms: _390  and  _391
REMARK  155  A    between atoms: _397  and  _399
REMARK  156  A    between atoms: _399  and  _400
REMARK  157  A    between atoms: _399  and  _402
REMARK  158  A    between atoms: _402  and  _403
REMARK  159  A    between atoms: _403  and  _404
REMARK  160  A    between atoms: _404  and  _405
REMARK  161  A    between atoms: _414  and  _416
REMARK  162  A    between atoms: _416  and  _417
REMARK  163  A    between atoms: _416  and  _419
REMARK  164  A    between atoms: _419  and  _420
REMARK  165  A    between atoms: _420  and  _421
REMARK  166  A    between atoms: _421  and  _422
REMARK  167  A    between atoms: _431  and  _433
REMARK  168  A    between atoms: _433  and  _434
REMARK  169  A    between atoms: _433  and  _436
REMARK  170  A    between atoms: _436  and  _437
REMARK  171  A    between atoms: _442  and  _444
REMARK  172  A    between atoms: _444  and  _445
REMARK  173  A    between atoms: _444  and  _447
REMARK  174  A    between atoms: _447  and  _448
REMARK  175  A    between atoms: _450  and  _452
REMARK  176  A    between atoms: _452  and  _453
REMARK  177  A    between atoms: _452  and  _455
REMARK  178  A    between atoms: _455  and  _456
REMARK  179  A    between atoms: _459  and  _461
REMARK  180  A    between atoms: _461  and  _462
REMARK  181  A    between atoms: _461  and  _464
REMARK  182  A    between atoms: _464  and  _465
REMARK  183  A    between atoms: _468  and  _470
REMARK  184  A    between atoms: _470  and  _471
REMARK  185  A    between atoms: _470  and  _473
REMARK  186  A    between atoms: _476  and  _478
REMARK  187  A    between atoms: _478  and  _479
REMARK  188  A    between atoms: _481  and  _483
REMARK  189  A    between atoms: _483  and  _484
REMARK  190  A    between atoms: _483  and  _486
REMARK  191  A    between atoms: _486  and  _487
REMARK  192  A    between atoms: _490  and  _492
REMARK  193  A    between atoms: _492  and  _493
REMARK  194  A    between atoms: _495  and  _497
REMARK  195  A    between atoms: _497  and  _498
REMARK  196  A    between atoms: _497  and  _500
REMARK  197  A    between atoms: _500  and  _501
REMARK  198  A    between atoms: _504  and  _506
REMARK  199  A    between atoms: _506  and  _507
REMARK  200  A    between atoms: _506  and  _509
REMARK  201  A    between atoms: _509  and  _510
REMARK  202  A    between atoms: _515  and  _516
REMARK  203  A    between atoms: _518  and  _520
REMARK  204  A    between atoms: _520  and  _521
REMARK  205  A    between atoms: _520  and  _523
REMARK  206  A    between atoms: _523  and  _524
REMARK  207  A    between atoms: _527  and  _529
REMARK  208  A    between atoms: _529  and  _530
REMARK  209  A    between atoms: _529  and  _532
REMARK  210  A    between atoms: _532  and  _533
REMARK  211  A    between atoms: _538  and  _540
REMARK  212  A    between atoms: _540  and  _541
REMARK  213  A    between atoms: _544  and  _546
REMARK  214  A    between atoms: _546  and  _547
REMARK  215  A    between atoms: _546  and  _549
REMARK  216  A    between atoms: _552  and  _554
REMARK  217  A    between atoms: _554  and  _555
REMARK  218  A    between atoms: _558  and  _560
REMARK  219  A    between atoms: _560  and  _561
REMARK  220  A    between atoms: _560  and  _563
REMARK  221  A    between atoms: _563  and  _564
REMARK  222  A    between atoms: _567  and  _569
REMARK  223  A    between atoms: _569  and  _570
REMARK  224  A    between atoms: _569  and  _572
REMARK  225  A    between atoms: _572  and  _573
REMARK  226  A    between atoms: _573  and  _574
REMARK  227  A    between atoms: _574  and  _575
REMARK  228  A    between atoms: _584  and  _586
REMARK  229  A    between atoms: _586  and  _587
REMARK  230  A    between atoms: _586  and  _589
REMARK  231  A    between atoms: _589  and  _590
REMARK  232  A    between atoms: _593  and  _595
REMARK  233  A    between atoms: _595  and  _596
REMARK  234  A    between atoms: _599  and  _601
REMARK  235  A    between atoms: _601  and  _602
REMARK  236  A    between atoms: _605  and  _607
REMARK  237  A    between atoms: _607  and  _608
REMARK  238  A    between atoms: _607  and  _610
REMARK  239  A    between atoms: _610  and  _611
REMARK  240  A    between atoms: _611  and  _612
REMARK                            x       y       z     vdW  Elec       q    Type
REMARK                         _______ _______ _______ _____ _____    ______ ____
ROOT
ATOM      1  CA  THR A   2     -27.266 -61.162 -43.061  0.00  0.00    +0.176 C 
ENDROOT
BRANCH   1   3
ATOM      2  C   THR A   1     -27.325 -63.021 -44.672  0.00  0.00    +0.241 C 
ATOM      3  N   THR A   2     -26.679 -62.351 -43.708  0.00  0.00    -0.295 N 
ATOM      4  H   THR A   2     -25.738 -62.678 -43.408  0.00  0.00    +0.150 HD
ATOM      5  O   THR A   1     -28.446 -62.687 -45.057  0.00  0.00    -0.274 OA
BRANCH   2   6
ATOM      6  CA  THR A   1     -26.604 -64.223 -45.356  0.00  0.00    +0.172 C 
BRANCH   6   7
ATOM      7  N   THR A   1     -27.459 -65.433 -45.288  0.00  0.00    -0.236 NA
ATOM      8  H   THR A   1     -28.011 -65.746 -46.112  0.00  0.00    +0.142 HD
ENDBRANCH   6   7
BRANCH   6   9
ATOM      9  CB  THR A   1     -26.242 -63.893 -46.804  0.00  0.00    +0.135 C 
ATOM     10  CG2 THR A   1     -25.115 -62.880 -46.905  0.00  0.00    +0.034 C 
BRANCH   9  11
ATOM     11  OG1 THR A   1     -25.828 -65.101 -47.453  0.00  0.00    -0.383 OA
ATOM     12  HG1 THR A   1     -26.569 -65.757 -47.430  0.00  0.00    +0.210 HD
ENDBRANCH   9  11
ENDBRANCH   6   9
ENDBRANCH   2   6
ENDBRANCH   1   3
BRANCH   1  13
ATOM     13  C   THR A   2     -27.178 -59.903 -43.947  0.00  0.00    +0.243 C 
ATOM     14  N   HIS A   3     -27.915 -58.851 -43.570  0.00  0.00    -0.298 N 
ATOM     15  H   HIS A   3     -28.503 -58.892 -42.713  0.00  0.00    +0.150 HD
ATOM     16  O   THR A   2     -26.401 -59.840 -44.921  0.00  0.00    -0.273 OA
BRANCH  14  17
ATOM     17  CA  HIS A   3     -27.873 -57.654 -44.384  0.00  0.00    +0.143 C 
BRANCH  17  18
ATOM     18  C   HIS A   3     -26.427 -57.034 -44.450  0.00  0.00    +0.227 C 
ATOM     19  O   HIS A   3     -25.954 -56.633 -45.521  0.00  0.00    -0.286 OA
ENDBRANCH  17  18
BRANCH  17  20
ATOM     20  CB  HIS A   3     -28.915 -56.624 -43.943  0.00  0.00    +0.075 C 
BRANCH  20  21
ATOM     21  CG  HIS A   3     -29.180 -55.614 -45.018  0.00  0.00    +0.082 A 
ATOM     22  ND1 HIS A   3     -28.434 -54.465 -45.149  0.00  0.00    -0.227 NA
ATOM     23  CE1 HIS A   3     -28.805 -53.825 -46.244  0.00  0.00    +0.199 A 
ATOM     24  NE2 HIS A   3     -29.744 -54.535 -46.845  0.00  0.00    -0.221 NA
ATOM     25  CD2 HIS A   3     -29.984 -55.672 -46.113  0.00  0.00    +0.115 A 
ENDBRANCH  20  21
ENDBRANCH  17  20
ENDBRANCH  14  17
ENDBRANCH   1  13
BRANCH   1  26
ATOM     26  CB  THR A   2     -26.608 -60.817 -41.735  0.00  0.00    +0.137 C 
ATOM     27  CG2 THR A   2     -26.669 -62.049 -40.726  0.00  0.00    +0.034 C 
BRANCH  26  28
ATOM     28  OG1 THR A   2     -25.242 -60.408 -41.984  0.00  0.00    -0.382 OA
ATOM     29  HG1 THR A   2     -24.751 -61.149 -42.420  0.00  0.00    +0.210 HD
ENDBRANCH  26  28
ENDBRANCH   1  26
TORSDOF 12
REMARK  Name = ../refined-set-2016/3n76/3n76_pocket.pdb
REMARK  240 active torsions:
REMARK  status: ('A' for Active; 'I' for Inactive)
REMARK    1  A    between atoms: _1  and  _3
REMARK    2  A    between atoms: _3  and  _4
REMARK    3  A    between atoms: _3  and  _6
REMARK    4  A    between atoms: _6  and  _7
REMARK    5  A    between atoms: _12  and  _14
REMARK    6  A    between atoms: _14  and  _15
REMARK    7  A    between atoms: _18  and  _19
REMARK    8  A    between atoms: _24  and  _26
REMARK    9  A    between atoms: _26  and  _27
REMARK   10  A    between atoms: _26  and  _29
REMARK   11  A    between atoms: _29  and  _30
REMARK   12  A    between atoms: _35  and  _37
REMARK   13  A    between atoms: _37  and  _38
REMARK   14  A    between atoms: _37  and  _40
REMARK   15  A    between atoms: _40  and  _41
REMARK   16  A    between atoms: _44  and  _46
REMARK   17  A    between atoms: _46  and  _47
REMARK   18  A    between atoms: _49  and  _51
REMARK   19  A    between atoms: _51  and  _52
REMARK   20  A    between atoms: _51  and  _54
REMARK   21  A    between atoms: _54  and  _55
REMARK   22  A    between atoms: _55  and  _56
REMARK   23  A    between atoms: _56  and  _57
REMARK   24  A    between atoms: _66  and  _68
REMARK   25  A    between atoms: _68  and  _69
REMARK   26  A    between atoms: _68  and  _71
REMARK   27  A    between atoms: _71  and  _72
REMARK   28  A    between atoms: _75  and  _77
REMARK   29  A    between atoms: _77  and  _78
REMARK   30  A    between atoms: _80  and  _82
REMARK   31  A    between atoms: _82  and  _83
REMARK   32  A    between atoms: _82  and  _85
REMARK   33  A    between atoms: _85  and  _86
REMARK   34  A    between atoms: _86  and  _87
REMARK   35  A    between atoms: _87  and  _88
REMARK   36  A    between atoms: _97  and  _99
REMARK   37  A    between atoms: _99  and  _100
REMARK   38  A    between atoms: _99  and  _102
REMARK   39  A    between atoms: _102  and  _103
REMARK   40  A    between atoms: _103  and  _104
REMARK   41  A    between atoms: _104  and  _105
REMARK   42  A    between atoms: _114  and  _116
REMARK   43  A    between atoms: _116  and  _117
REMARK   44  A    between atoms: _116  and  _119
REMARK   45  A    between atoms: _119  and  _120
REMARK   46  A    between atoms: _120  and  _121
REMARK   47  A    between atoms: _125  and  _126
REMARK   48  A    between atoms: _131  and  _133
REMARK   49  A    between atoms: _133  and  _134
REMARK   50  A    between atoms: _133  and  _136
REMARK   51  A    between atoms: _139  and  _141
REMARK   52  A    between atoms: _141  and  _142
REMARK   53  A    between atoms: _141  and  _144
REMARK   54  A    between atoms: _144  and  _145
REMARK   55  A    between atoms: _150  and  _151
REMARK   56  A    between atoms: _153  and  _155
REMARK   57  A    between atoms: _155  and  _156
REMARK   58  A    between atoms: _158  and  _160
REMARK   59  A    between atoms: _160  and  _161
REMARK   60  A    between atoms: _160  and  _163
REMARK   61  A    between atoms: _163  and  _164
REMARK   62  A    between atoms: _167  and  _169
REMARK   63  A    between atoms: _169  and  _170
REMARK   64  A    between atoms: _169  and  _172
REMARK   65  A    between atoms: _172  and  _173
REMARK   66  A    between atoms: _176  and  _178
REMARK   67  A    between atoms: _178  and  _179
REMARK   68  A    between atoms: _178  and  _181
REMARK   69  A    between atoms: _181  and  _182
REMARK   70  A    between atoms: _187  and  _189
REMARK   71  A    between atoms: _189  and  _190
REMARK   72  A    between atoms: _189  and  _192
REMARK   73  A    between atoms: _192  and  _193
REMARK   74  A    between atoms: _193  and  _194
REMARK   75  A    between atoms: _199  and  _201
REMARK   76  A    between atoms: _201  and  _202
REMARK   77  A    between atoms: _201  and  _204
REMARK   78  A    between atoms: _204  and  _205
REMARK   79  A    between atoms: _208  and  _210
REMARK   80  A    between atoms: _210  and  _211
REMARK   81  A    between atoms: _210  and  _213
REMARK   82  A    between atoms: _213  and  _214
REMARK   83  A    between atoms: _217  and  _219
REMARK   84  A    between atoms: _219  and  _220
REMARK   85  A    between atoms: _219  and  _222
REMARK   86  A    between atoms: _222  and  _223
REMARK   87  A    between atoms: _228  and  _230
REMARK   88  A    between atoms: _230  and  _231
REMARK   89  A    between atoms: _234  and  _236
REMARK   90  A    between atoms: _236  and  _237
REMARK   91  A    between atoms: _239  and  _241
REMARK   92  A    between atoms: _241  and  _242
REMARK   93  A    between atoms: _244  and  _246
REMARK   94  A    between atoms: _246  and  _247
REMARK   95  A    between atoms: _246  and  _249
REMARK   96  A    between atoms: _249  and  _250
REMARK   97  A    between atoms: _253  and  _255
REMARK   98  A    between atoms: _255  and  _256
REMARK   99  A    between atoms: _255  and  _258
REMARK  100  A    between atoms: _258  and  _259
REMARK  101  A    between atoms: _262  and  _264
REMARK  102  A    between atoms: _264  and  _265
REMARK  103  A    between atoms: _264  and  _267
REMARK  104  A    between atoms: _267  and  _268
REMARK  105  A    between atoms: _273  and  _275
REMARK  106  A    between atoms: _275  and  _276
REMARK  107  A    between atoms: _275  and  _278
REMARK  108  A    between atoms: _278  and  _279
REMARK  109  A    between atoms: _282  and  _284
REMARK  110  A    between atoms: _284  and  _285
REMARK  111  A    between atoms: _284  and  _287
REMARK  112  A    between atoms: _287  and  _288
REMARK  113  A    between atoms: _288  and  _289
REMARK  114  A    between atoms: _292  and  _294
REMARK  115  A    between atoms: _294  and  _295
REMARK  116  A    between atoms: _294  and  _297
REMARK  117  A    between atoms: _300  and  _302
REMARK  118  A    between atoms: _302  and  _303
REMARK  119  A    between atoms: _302  and  _305
REMARK  120  A    between atoms: _305  and  _306
REMARK  121  A    between atoms: _311  and  _313
REMARK  122  A    between atoms: _313  and  _314
REMARK  123  A    between atoms: _313  and  _316
REMARK  124  A    between atoms: _316  and  _317
REMARK  125  A    between atoms: _320  and  _322
REMARK  126  A    between atoms: _322  and  _323
REMARK  127  A    between atoms: _322  and  _325
REMARK  128  A    between atoms: _325  and  _326
REMARK  129  A    between atoms: _328  and  _330
REMARK  130  A    between atoms: _330  and  _331
REMARK  131  A    between atoms: _330  and  _333
REMARK  132  A    between atoms: _333  and  _334
REMARK  133  A    between atoms: _339  and  _341
REMARK  134  A    between atoms: _341  and  _342
REMARK  135  A    between atoms: _341  and  _344
REMARK  136  A    between atoms: _347  and  _349
REMARK  137  A    between atoms: _349  and  _350
REMARK  138  A    between atoms: _349  and  _352
REMARK  139  A    between atoms: _352  and  _353
REMARK  140  A    between atoms: _358  and  _360
REMARK  141  A    between atoms: _360  and  _361
REMARK  142  A    between atoms: _360  and  _363
REMARK  143  A    between atoms: _363  and  _364
REMARK  144  A    between atoms: _364  and  _365
REMARK  145  A    between atoms: _365  and  _366
REMARK  146  A    between atoms: _375  and  _377
REMARK  147  A    between atoms: _377  and  _378
REMARK  148  A    between atoms: _377  and  _380
REMARK  149  A    between atoms: _380  and  _381
REMARK  150  A    between atoms: _381  and  _382
REMARK  151  A    between atoms: _385  and  _387
REMARK  152  A    between atoms: _387  and  _388
REMARK  153  A    between atoms: _387  and  _390
REMARK  154  A    between atoms: _390  and  _391
REMARK  155  A    between atoms: _397  and  _399
REMARK  156  A    between atoms: _399  and  _400
REMARK  157  A    between atoms: _399  and  _402
REMARK  158  A    between atoms: _402  and  _403
REMARK  159  A    between atoms: _403  and  _404
REMARK  160  A    between atoms: _404  and  _405
REMARK  161  A    between atoms: _414  and  _416
REMARK  162  A    between atoms: _416  and  _417
REMARK  163  A    between atoms: _416  and  _419
REMARK  164  A    between atoms: _419  and  _420
REMARK  165  A    between atoms: _420  and  _421
REMARK  166  A    between atoms: _421  and  _422
REMARK  167  A    between atoms: _431  and  _433
REMARK  168  A    between atoms: _433  and  _434
REMARK  169  A    between atoms: _433  and  _436
REMARK  170  A    between atoms: _436  and  _437
REMARK  171  A    between atoms: _442  and  _444
REMARK  172  A    between atoms: _444  and  _445
REMARK  173  A    between atoms: _444  and  _447
REMARK  174  A    between atoms: _447  and  _448
REMARK  175  A    between atoms: _450  and  _452
REMARK  176  A    between atoms: _452  and  _453
REMARK  177  A    between atoms: _452  and  _455
REMARK  178  A    between atoms: _455  and  _456
REMARK  179  A    between atoms: _459  and  _461
REMARK  180  A    between atoms: _461  and  _462
REMARK  181  A    between atoms: _461  and  _464
REMARK  182  A    between atoms: _464  and  _465
REMARK  183  A    between atoms: _468  and  _470
REMARK  184  A    between atoms: _470  and  _471
REMARK  185  A    between atoms: _470  and  _473
REMARK  186  A    between atoms: _476  and  _478
REMARK  187  A    between atoms: _478  and  _479
REMARK  188  A    between atoms: _481  and  _483
REMARK  189  A    between atoms: _483  and  _484
REMARK  190  A    between atoms: _483  and  _486
REMARK  191  A    between atoms: _486  and  _487
REMARK  192  A    between atoms: _490  and  _492
REMARK  193  A    between atoms: _492  and  _493
REMARK  194  A    between atoms: _495  and  _497
REMARK  195  A    between atoms: _497  and  _498
REMARK  196  A    between atoms: _497  and  _500
REMARK  197  A    between atoms: _500  and  _501
REMARK  198  A    between atoms: _504  and  _506
REMARK  199  A    between atoms: _506  and  _507
REMARK  200  A    between atoms: _506  and  _509
REMARK  201  A    between atoms: _509  and  _510
REMARK  202  A    between atoms: _515  and  _516
REMARK  203  A    between atoms: _518  and  _520
REMARK  204  A    between atoms: _520  and  _521
REMARK  205  A    between atoms: _520  and  _523
REMARK  206  A    between atoms: _523  and  _524
REMARK  207  A    between atoms: _527  and  _529
REMARK  208  A    between atoms: _529  and  _530
REMARK  209  A    between atoms: _529  and  _532
REMARK  210  A    between atoms: _532  and  _533
REMARK  211  A    between atoms: _538  and  _540
REMARK  212  A    between atoms: _540  and  _541
REMARK  213  A    between atoms: _544  and  _546
REMARK  214  A    between atoms: _546  and  _547
REMARK  215  A    between atoms: _546  and  _549
REMARK  216  A    between atoms: _552  and  _554
REMARK  217  A    between atoms: _554  and  _555
REMARK  218  A    between atoms: _558  and  _560
REMARK  219  A    between atoms: _560  and  _561
REMARK  220  A    between atoms: _560  and  _563
REMARK  221  A    between atoms: _563  and  _564
REMARK  222  A    between atoms: _567  and  _569
REMARK  223  A    between atoms: _569  and  _570
REMARK  224  A    between atoms: _569  and  _572
REMARK  225  A    between atoms: _572  and  _573
REMARK  226  A    between atoms: _573  and  _574
REMARK  227  A    between atoms: _574  and  _575
REMARK  228  A    between atoms: _584  and  _586
REMARK  229  A    between atoms: _586  and  _587
REMARK  230  A    between atoms: _586  and  _589
REMARK  231  A    between atoms: _589  and  _590
REMARK  232  A    between atoms: _593  and  _595
REMARK  233  A    between atoms: _595  and  _596
REMARK  234  A    between atoms: _599  and  _601
REMARK  235  A    between atoms: _601  and  _602
REMARK  236  A    between atoms: _605  and  _607
REMARK  237  A    between atoms: _607  and  _608
REMARK  238  A    between atoms: _607  and  _610
REMARK  239  A    between atoms: _610  and  _611
REMARK  240  A    between atoms: _611  and  _612
REMARK                            x       y       z     vdW  Elec       q    Type
REMARK                         _______ _______ _______ _____ _____    ______ ____
ROOT
ATOM      1  CB  GLN A   1     -31.945 -51.995 -46.022  0.00  0.00    +0.035 C 
ENDROOT
BRANCH   1   2
ATOM      2  CA  GLN A   1     -32.192 -50.697 -46.810  0.00  0.00    +0.134 C 
BRANCH   2   3
ATOM      3  N   GLN A   1     -30.929 -49.986 -47.112  0.00  0.00    -0.239 NA
ATOM      4  H   GLN A   1     -30.443 -49.476 -46.347  0.00  0.00    +0.142 HD
ENDBRANCH   2   3
BRANCH   2   5
ATOM      5  C   GLN A   1     -33.041 -49.768 -45.968  0.00  0.00    +0.224 C 
ATOM      6  O   GLN A   1     -32.527 -49.050 -45.102  0.00  0.00    -0.287 OA
ENDBRANCH   2   5
ENDBRANCH   1   2
BRANCH   1   7
ATOM      7  CG  GLN A   1     -33.196 -52.896 -45.831  0.00  0.00    +0.087 C 
BRANCH   7   8
ATOM      8  CD  GLN A   1     -34.092 -52.477 -44.628  0.00  0.00    +0.219 C 
ATOM      9  OE1 GLN A   1     -33.590 -52.098 -43.520  0.00  0.00    -0.275 OA
ATOM     10  NE2 GLN A   1     -35.405 -52.665 -44.797  0.00  0.00    -0.329 N 
ATOM     11 HE21 GLN A   1     -36.060 -52.501 -44.006  0.00  0.00    +0.145 HD
ATOM     12 HE22 GLN A   1     -35.771 -52.975 -45.720  0.00  0.00    +0.145 HD
ENDBRANCH   7   8
ENDBRANCH   1   7
TORSDOF 5
REMARK  Name = ../refined-set-2016/3n76/3n76_pocket.pdb
REMARK  240 active torsions:
REMARK  status: ('A' for Active; 'I' for Inactive)
REMARK    1  A    between atoms: _1  and  _3
REMARK    2  A    between atoms: _3  and  _4
REMARK    3  A    between atoms: _3  and  _6
REMARK    4  A    between atoms: _6  and  _7
REMARK    5  A    between atoms: _12  and  _14
REMARK    6  A    between atoms: _14  and  _15
REMARK    7  A    between atoms: _18  and  _19
REMARK    8  A    between atoms: _24  and  _26
REMARK    9  A    between atoms: _26  and  _27
REMARK   10  A    between atoms: _26  and  _29
REMARK   11  A    between atoms: _29  and  _30
REMARK   12  A    between atoms: _35  and  _37
REMARK   13  A    between atoms: _37  and  _38
REMARK   14  A    between atoms: _37  and  _40
REMARK   15  A    between atoms: _40  and  _41
REMARK   16  A    between atoms: _44  and  _46
REMARK   17  A    between atoms: _46  and  _47
REMARK   18  A    between atoms: _49  and  _51
REMARK   19  A    between atoms: _51  and  _52
REMARK   20  A    between atoms: _51  and  _54
REMARK   21  A    between atoms: _54  and  _55
REMARK   22  A    between atoms: _55  and  _56
REMARK   23  A    between atoms: _56  and  _57
REMARK   24  A    between atoms: _66  and  _68
REMARK   25  A    between atoms: _68  and  _69
REMARK   26  A    between atoms: _68  and  _71
REMARK   27  A    between atoms: _71  and  _72
REMARK   28  A    between atoms: _75  and  _77
REMARK   29  A    between atoms: _77  and  _78
REMARK   30  A    between atoms: _80  and  _82
REMARK   31  A    between atoms: _82  and  _83
REMARK   32  A    between atoms: _82  and  _85
REMARK   33  A    between atoms: _85  and  _86
REMARK   34  A    between atoms: _86  and  _87
REMARK   35  A    between atoms: _87  and  _88
REMARK   36  A    between atoms: _97  and  _99
REMARK   37  A    between atoms: _99  and  _100
REMARK   38  A    between atoms: _99  and  _102
REMARK   39  A    between atoms: _102  and  _103
REMARK   40  A    between atoms: _103  and  _104
REMARK   41  A    between atoms: _104  and  _105
REMARK   42  A    between atoms: _114  and  _116
REMARK   43  A    between atoms: _116  and  _117
REMARK   44  A    between atoms: _116  and  _119
REMARK   45  A    between atoms: _119  and  _120
REMARK   46  A    between atoms: _120  and  _121
REMARK   47  A    between atoms: _125  and  _126
REMARK   48  A    between atoms: _131  and  _133
REMARK   49  A    between atoms: _133  and  _134
REMARK   50  A    between atoms: _133  and  _136
REMARK   51  A    between atoms: _139  and  _141
REMARK   52  A    between atoms: _141  and  _142
REMARK   53  A    between atoms: _141  and  _144
REMARK   54  A    between atoms: _144  and  _145
REMARK   55  A    between atoms: _150  and  _151
REMARK   56  A    between atoms: _153  and  _155
REMARK   57  A    between atoms: _155  and  _156
REMARK   58  A    between atoms: _158  and  _160
REMARK   59  A    between atoms: _160  and  _161
REMARK   60  A    between atoms: _160  and  _163
REMARK   61  A    between atoms: _163  and  _164
REMARK   62  A    between atoms: _167  and  _169
REMARK   63  A    between atoms: _169  and  _170
REMARK   64  A    between atoms: _169  and  _172
REMARK   65  A    between atoms: _172  and  _173
REMARK   66  A    between atoms: _176  and  _178
REMARK   67  A    between atoms: _178  and  _179
REMARK   68  A    between atoms: _178  and  _181
REMARK   69  A    between atoms: _181  and  _182
REMARK   70  A    between atoms: _187  and  _189
REMARK   71  A    between atoms: _189  and  _190
REMARK   72  A    between atoms: _189  and  _192
REMARK   73  A    between atoms: _192  and  _193
REMARK   74  A    between atoms: _193  and  _194
REMARK   75  A    between atoms: _199  and  _201
REMARK   76  A    between atoms: _201  and  _202
REMARK   77  A    between atoms: _201  and  _204
REMARK   78  A    between atoms: _204  and  _205
REMARK   79  A    between atoms: _208  and  _210
REMARK   80  A    between atoms: _210  and  _211
REMARK   81  A    between atoms: _210  and  _213
REMARK   82  A    between atoms: _213  and  _214
REMARK   83  A    between atoms: _217  and  _219
REMARK   84  A    between atoms: _219  and  _220
REMARK   85  A    between atoms: _219  and  _222
REMARK   86  A    between atoms: _222  and  _223
REMARK   87  A    between atoms: _228  and  _230
REMARK   88  A    between atoms: _230  and  _231
REMARK   89  A    between atoms: _234  and  _236
REMARK   90  A    between atoms: _236  and  _237
REMARK   91  A    between atoms: _239  and  _241
REMARK   92  A    between atoms: _241  and  _242
REMARK   93  A    between atoms: _244  and  _246
REMARK   94  A    between atoms: _246  and  _247
REMARK   95  A    between atoms: _246  and  _249
REMARK   96  A    between atoms: _249  and  _250
REMARK   97  A    between atoms: _253  and  _255
REMARK   98  A    between atoms: _255  and  _256
REMARK   99  A    between atoms: _255  and  _258
REMARK  100  A    between atoms: _258  and  _259
REMARK  101  A    between atoms: _262  and  _264
REMARK  102  A    between atoms: _264  and  _265
REMARK  103  A    between atoms: _264  and  _267
REMARK  104  A    between atoms: _267  and  _268
REMARK  105  A    between atoms: _273  and  _275
REMARK  106  A    between atoms: _275  and  _276
REMARK  107  A    between atoms: _275  and  _278
REMARK  108  A    between atoms: _278  and  _279
REMARK  109  A    between atoms: _282  and  _284
REMARK  110  A    between atoms: _284  and  _285
REMARK  111  A    between atoms: _284  and  _287
REMARK  112  A    between atoms: _287  and  _288
REMARK  113  A    between atoms: _288  and  _289
REMARK  114  A    between atoms: _292  and  _294
REMARK  115  A    between atoms: _294  and  _295
REMARK  116  A    between atoms: _294  and  _297
REMARK  117  A    between atoms: _300  and  _302
REMARK  118  A    between atoms: _302  and  _303
REMARK  119  A    between atoms: _302  and  _305
REMARK  120  A    between atoms: _305  and  _306
REMARK  121  A    between atoms: _311  and  _313
REMARK  122  A    between atoms: _313  and  _314
REMARK  123  A    between atoms: _313  and  _316
REMARK  124  A    between atoms: _316  and  _317
REMARK  125  A    between atoms: _320  and  _322
REMARK  126  A    between atoms: _322  and  _323
REMARK  127  A    between atoms: _322  and  _325
REMARK  128  A    between atoms: _325  and  _326
REMARK  129  A    between atoms: _328  and  _330
REMARK  130  A    between atoms: _330  and  _331
REMARK  131  A    between atoms: _330  and  _333
REMARK  132  A    between atoms: _333  and  _334
REMARK  133  A    between atoms: _339  and  _341
REMARK  134  A    between atoms: _341  and  _342
REMARK  135  A    between atoms: _341  and  _344
REMARK  136  A    between atoms: _347  and  _349
REMARK  137  A    between atoms: _349  and  _350
REMARK  138  A    between atoms: _349  and  _352
REMARK  139  A    between atoms: _352  and  _353
REMARK  140  A    between atoms: _358  and  _360
REMARK  141  A    between atoms: _360  and  _361
REMARK  142  A    between atoms: _360  and  _363
REMARK  143  A    between atoms: _363  and  _364
REMARK  144  A    between atoms: _364  and  _365
REMARK  145  A    between atoms: _365  and  _366
REMARK  146  A    between atoms: _375  and  _377
REMARK  147  A    between atoms: _377  and  _378
REMARK  148  A    between atoms: _377  and  _380
REMARK  149  A    between atoms: _380  and  _381
REMARK  150  A    between atoms: _381  and  _382
REMARK  151  A    between atoms: _385  and  _387
REMARK  152  A    between atoms: _387  and  _388
REMARK  153  A    between atoms: _387  and  _390
REMARK  154  A    between atoms: _390  and  _391
REMARK  155  A    between atoms: _397  and  _399
REMARK  156  A    between atoms: _399  and  _400
REMARK  157  A    between atoms: _399  and  _402
REMARK  158  A    between atoms: _402  and  _403
REMARK  159  A    between atoms: _403  and  _404
REMARK  160  A    between atoms: _404  and  _405
REMARK  161  A    between atoms: _414  and  _416
REMARK  162  A    between atoms: _416  and  _417
REMARK  163  A    between atoms: _416  and  _419
REMARK  164  A    between atoms: _419  and  _420
REMARK  165  A    between atoms: _420  and  _421
REMARK  166  A    between atoms: _421  and  _422
REMARK  167  A    between atoms: _431  and  _433
REMARK  168  A    between atoms: _433  and  _434
REMARK  169  A    between atoms: _433  and  _436
REMARK  170  A    between atoms: _436  and  _437
REMARK  171  A    between atoms: _442  and  _444
REMARK  172  A    between atoms: _444  and  _445
REMARK  173  A    between atoms: _444  and  _447
REMARK  174  A    between atoms: _447  and  _448
REMARK  175  A    between atoms: _450  and  _452
REMARK  176  A    between atoms: _452  and  _453
REMARK  177  A    between atoms: _452  and  _455
REMARK  178  A    between atoms: _455  and  _456
REMARK  179  A    between atoms: _459  and  _461
REMARK  180  A    between atoms: _461  and  _462
REMARK  181  A    between atoms: _461  and  _464
REMARK  182  A    between atoms: _464  and  _465
REMARK  183  A    between atoms: _468  and  _470
REMARK  184  A    between atoms: _470  and  _471
REMARK  185  A    between atoms: _470  and  _473
REMARK  186  A    between atoms: _476  and  _478
REMARK  187  A    between atoms: _478  and  _479
REMARK  188  A    between atoms: _481  and  _483
REMARK  189  A    between atoms: _483  and  _484
REMARK  190  A    between atoms: _483  and  _486
REMARK  191  A    between atoms: _486  and  _487
REMARK  192  A    between atoms: _490  and  _492
REMARK  193  A    between atoms: _492  and  _493
REMARK  194  A    between atoms: _495  and  _497
REMARK  195  A    between atoms: _497  and  _498
REMARK  196  A    between atoms: _497  and  _500
REMARK  197  A    between atoms: _500  and  _501
REMARK  198  A    between atoms: _504  and  _506
REMARK  199  A    between atoms: _506  and  _507
REMARK  200  A    between atoms: _506  and  _509
REMARK  201  A    between atoms: _509  and  _510
REMARK  202  A    between atoms: _515  and  _516
REMARK  203  A    between atoms: _518  and  _520
REMARK  204  A    between atoms: _520  and  _521
REMARK  205  A    between atoms: _520  and  _523
REMARK  206  A    between atoms: _523  and  _524
REMARK  207  A    between atoms: _527  and  _529
REMARK  208  A    between atoms: _529  and  _530
REMARK  209  A    between atoms: _529  and  _532
REMARK  210  A    between atoms: _532  and  _533
REMARK  211  A    between atoms: _538  and  _540
REMARK  212  A    between atoms: _540  and  _541
REMARK  213  A    between atoms: _544  and  _546
REMARK  214  A    between atoms: _546  and  _547
REMARK  215  A    between atoms: _546  and  _549
REMARK  216  A    between atoms: _552  and  _554
REMARK  217  A    between atoms: _554  and  _555
REMARK  218  A    between atoms: _558  and  _560
REMARK  219  A    between atoms: _560  and  _561
REMARK  220  A    between atoms: _560  and  _563
REMARK  221  A    between atoms: _563  and  _564
REMARK  222  A    between atoms: _567  and  _569
REMARK  223  A    between atoms: _569  and  _570
REMARK  224  A    between atoms: _569  and  _572
REMARK  225  A    between atoms: _572  and  _573
REMARK  226  A    between atoms: _573  and  _574
REMARK  227  A    between atoms: _574  and  _575
REMARK  228  A    between atoms: _584  and  _586
REMARK  229  A    between atoms: _586  and  _587
REMARK  230  A    between atoms: _586  and  _589
REMARK  231  A    between atoms: _589  and  _590
REMARK  232  A    between atoms: _593  and  _595
REMARK  233  A    between atoms: _595  and  _596
REMARK  234  A    between atoms: _599  and  _601
REMARK  235  A    between atoms: _601  and  _602
REMARK  236  A    between atoms: _605  and  _607
REMARK  237  A    between atoms: _607  and  _608
REMARK  238  A    between atoms: _607  and  _610
REMARK  239  A    between atoms: _610  and  _611
REMARK  240  A    between atoms: _611  and  _612
REMARK                            x       y       z     vdW  Elec       q    Type
REMARK                         _______ _______ _______ _____ _____    ______ ____
ROOT
ATOM      1  CA  ASP A   1     -38.686 -50.153 -44.021  0.00  0.00    +0.144 C 
ENDROOT
BRANCH   1   2
ATOM      2  N   ASP A   1     -37.300 -49.688 -44.178  0.00  0.00    -0.239 NA
ATOM      3  H   ASP A   1     -36.799 -49.300 -43.353  0.00  0.00    +0.142 HD
ENDBRANCH   1   2
BRANCH   1   4
ATOM      4  C   ASP A   1     -39.693 -49.077 -44.448  0.00  0.00    +0.225 C 
ATOM      5  O   ASP A   1     -40.900 -49.369 -44.459  0.00  0.00    -0.287 OA
ENDBRANCH   1   4
BRANCH   1   6
ATOM      6  CB  ASP A   1     -39.005 -50.550 -42.592  0.00  0.00    +0.139 C 
BRANCH   6   7
ATOM      7  CG  ASP A   1     -38.380 -51.898 -42.202  0.00  0.00    +0.367 C 
ATOM      8  OD2 ASP A   1     -38.386 -52.180 -41.010  0.00  0.00    -0.246 OA
ATOM      9  OD1 ASP A   1     -37.813 -52.590 -43.075  0.00  0.00    -0.246 OA
ENDBRANCH   6   7
ENDBRANCH   1   6
TORSDOF 4
REMARK  Name = ../refined-set-2016/3n76/3n76_pocket.pdb
REMARK  240 active torsions:
REMARK  status: ('A' for Active; 'I' for Inactive)
REMARK    1  A    between atoms: _1  and  _3
REMARK    2  A    between atoms: _3  and  _4
REMARK    3  A    between atoms: _3  and  _6
REMARK    4  A    between atoms: _6  and  _7
REMARK    5  A    between atoms: _12  and  _14
REMARK    6  A    between atoms: _14  and  _15
REMARK    7  A    between atoms: _18  and  _19
REMARK    8  A    between atoms: _24  and  _26
REMARK    9  A    between atoms: _26  and  _27
REMARK   10  A    between atoms: _26  and  _29
REMARK   11  A    between atoms: _29  and  _30
REMARK   12  A    between atoms: _35  and  _37
REMARK   13  A    between atoms: _37  and  _38
REMARK   14  A    between atoms: _37  and  _40
REMARK   15  A    between atoms: _40  and  _41
REMARK   16  A    between atoms: _44  and  _46
REMARK   17  A    between atoms: _46  and  _47
REMARK   18  A    between atoms: _49  and  _51
REMARK   19  A    between atoms: _51  and  _52
REMARK   20  A    between atoms: _51  and  _54
REMARK   21  A    between atoms: _54  and  _55
REMARK   22  A    between atoms: _55  and  _56
REMARK   23  A    between atoms: _56  and  _57
REMARK   24  A    between atoms: _66  and  _68
REMARK   25  A    between atoms: _68  and  _69
REMARK   26  A    between atoms: _68  and  _71
REMARK   27  A    between atoms: _71  and  _72
REMARK   28  A    between atoms: _75  and  _77
REMARK   29  A    between atoms: _77  and  _78
REMARK   30  A    between atoms: _80  and  _82
REMARK   31  A    between atoms: _82  and  _83
REMARK   32  A    between atoms: _82  and  _85
REMARK   33  A    between atoms: _85  and  _86
REMARK   34  A    between atoms: _86  and  _87
REMARK   35  A    between atoms: _87  and  _88
REMARK   36  A    between atoms: _97  and  _99
REMARK   37  A    between atoms: _99  and  _100
REMARK   38  A    between atoms: _99  and  _102
REMARK   39  A    between atoms: _102  and  _103
REMARK   40  A    between atoms: _103  and  _104
REMARK   41  A    between atoms: _104  and  _105
REMARK   42  A    between atoms: _114  and  _116
REMARK   43  A    between atoms: _116  and  _117
REMARK   44  A    between atoms: _116  and  _119
REMARK   45  A    between atoms: _119  and  _120
REMARK   46  A    between atoms: _120  and  _121
REMARK   47  A    between atoms: _125  and  _126
REMARK   48  A    between atoms: _131  and  _133
REMARK   49  A    between atoms: _133  and  _134
REMARK   50  A    between atoms: _133  and  _136
REMARK   51  A    between atoms: _139  and  _141
REMARK   52  A    between atoms: _141  and  _142
REMARK   53  A    between atoms: _141  and  _144
REMARK   54  A    between atoms: _144  and  _145
REMARK   55  A    between atoms: _150  and  _151
REMARK   56  A    between atoms: _153  and  _155
REMARK   57  A    between atoms: _155  and  _156
REMARK   58  A    between atoms: _158  and  _160
REMARK   59  A    between atoms: _160  and  _161
REMARK   60  A    between atoms: _160  and  _163
REMARK   61  A    between atoms: _163  and  _164
REMARK   62  A    between atoms: _167  and  _169
REMARK   63  A    between atoms: _169  and  _170
REMARK   64  A    between atoms: _169  and  _172
REMARK   65  A    between atoms: _172  and  _173
REMARK   66  A    between atoms: _176  and  _178
REMARK   67  A    between atoms: _178  and  _179
REMARK   68  A    between atoms: _178  and  _181
REMARK   69  A    between atoms: _181  and  _182
REMARK   70  A    between atoms: _187  and  _189
REMARK   71  A    between atoms: _189  and  _190
REMARK   72  A    between atoms: _189  and  _192
REMARK   73  A    between atoms: _192  and  _193
REMARK   74  A    between atoms: _193  and  _194
REMARK   75  A    between atoms: _199  and  _201
REMARK   76  A    between atoms: _201  and  _202
REMARK   77  A    between atoms: _201  and  _204
REMARK   78  A    between atoms: _204  and  _205
REMARK   79  A    between atoms: _208  and  _210
REMARK   80  A    between atoms: _210  and  _211
REMARK   81  A    between atoms: _210  and  _213
REMARK   82  A    between atoms: _213  and  _214
REMARK   83  A    between atoms: _217  and  _219
REMARK   84  A    between atoms: _219  and  _220
REMARK   85  A    between atoms: _219  and  _222
REMARK   86  A    between atoms: _222  and  _223
REMARK   87  A    between atoms: _228  and  _230
REMARK   88  A    between atoms: _230  and  _231
REMARK   89  A    between atoms: _234  and  _236
REMARK   90  A    between atoms: _236  and  _237
REMARK   91  A    between atoms: _239  and  _241
REMARK   92  A    between atoms: _241  and  _242
REMARK   93  A    between atoms: _244  and  _246
REMARK   94  A    between atoms: _246  and  _247
REMARK   95  A    between atoms: _246  and  _249
REMARK   96  A    between atoms: _249  and  _250
REMARK   97  A    between atoms: _253  and  _255
REMARK   98  A    between atoms: _255  and  _256
REMARK   99  A    between atoms: _255  and  _258
REMARK  100  A    between atoms: _258  and  _259
REMARK  101  A    between atoms: _262  and  _264
REMARK  102  A    between atoms: _264  and  _265
REMARK  103  A    between atoms: _264  and  _267
REMARK  104  A    between atoms: _267  and  _268
REMARK  105  A    between atoms: _273  and  _275
REMARK  106  A    between atoms: _275  and  _276
REMARK  107  A    between atoms: _275  and  _278
REMARK  108  A    between atoms: _278  and  _279
REMARK  109  A    between atoms: _282  and  _284
REMARK  110  A    between atoms: _284  and  _285
REMARK  111  A    between atoms: _284  and  _287
REMARK  112  A    between atoms: _287  and  _288
REMARK  113  A    between atoms: _288  and  _289
REMARK  114  A    between atoms: _292  and  _294
REMARK  115  A    between atoms: _294  and  _295
REMARK  116  A    between atoms: _294  and  _297
REMARK  117  A    between atoms: _300  and  _302
REMARK  118  A    between atoms: _302  and  _303
REMARK  119  A    between atoms: _302  and  _305
REMARK  120  A    between atoms: _305  and  _306
REMARK  121  A    between atoms: _311  and  _313
REMARK  122  A    between atoms: _313  and  _314
REMARK  123  A    between atoms: _313  and  _316
REMARK  124  A    between atoms: _316  and  _317
REMARK  125  A    between atoms: _320  and  _322
REMARK  126  A    between atoms: _322  and  _323
REMARK  127  A    between atoms: _322  and  _325
REMARK  128  A    between atoms: _325  and  _326
REMARK  129  A    between atoms: _328  and  _330
REMARK  130  A    between atoms: _330  and  _331
REMARK  131  A    between atoms: _330  and  _333
REMARK  132  A    between atoms: _333  and  _334
REMARK  133  A    between atoms: _339  and  _341
REMARK  134  A    between atoms: _341  and  _342
REMARK  135  A    between atoms: _341  and  _344
REMARK  136  A    between atoms: _347  and  _349
REMARK  137  A    between atoms: _349  and  _350
REMARK  138  A    between atoms: _349  and  _352
REMARK  139  A    between atoms: _352  and  _353
REMARK  140  A    between atoms: _358  and  _360
REMARK  141  A    between atoms: _360  and  _361
REMARK  142  A    between atoms: _360  and  _363
REMARK  143  A    between atoms: _363  and  _364
REMARK  144  A    between atoms: _364  and  _365
REMARK  145  A    between atoms: _365  and  _366
REMARK  146  A    between atoms: _375  and  _377
REMARK  147  A    between atoms: _377  and  _378
REMARK  148  A    between atoms: _377  and  _380
REMARK  149  A    between atoms: _380  and  _381
REMARK  150  A    between atoms: _381  and  _382
REMARK  151  A    between atoms: _385  and  _387
REMARK  152  A    between atoms: _387  and  _388
REMARK  153  A    between atoms: _387  and  _390
REMARK  154  A    between atoms: _390  and  _391
REMARK  155  A    between atoms: _397  and  _399
REMARK  156  A    between atoms: _399  and  _400
REMARK  157  A    between atoms: _399  and  _402
REMARK  158  A    between atoms: _402  and  _403
REMARK  159  A    between atoms: _403  and  _404
REMARK  160  A    between atoms: _404  and  _405
REMARK  161  A    between atoms: _414  and  _416
REMARK  162  A    between atoms: _416  and  _417
REMARK  163  A    between atoms: _416  and  _419
REMARK  164  A    between atoms: _419  and  _420
REMARK  165  A    between atoms: _420  and  _421
REMARK  166  A    between atoms: _421  and  _422
REMARK  167  A    between atoms: _431  and  _433
REMARK  168  A    between atoms: _433  and  _434
REMARK  169  A    between atoms: _433  and  _436
REMARK  170  A    between atoms: _436  and  _437
REMARK  171  A    between atoms: _442  and  _444
REMARK  172  A    between atoms: _444  and  _445
REMARK  173  A    between atoms: _444  and  _447
REMARK  174  A    between atoms: _447  and  _448
REMARK  175  A    between atoms: _450  and  _452
REMARK  176  A    between atoms: _452  and  _453
REMARK  177  A    between atoms: _452  and  _455
REMARK  178  A    between atoms: _455  and  _456
REMARK  179  A    between atoms: _459  and  _461
REMARK  180  A    between atoms: _461  and  _462
REMARK  181  A    between atoms: _461  and  _464
REMARK  182  A    between atoms: _464  and  _465
REMARK  183  A    between atoms: _468  and  _470
REMARK  184  A    between atoms: _470  and  _471
REMARK  185  A    between atoms: _470  and  _473
REMARK  186  A    between atoms: _476  and  _478
REMARK  187  A    between atoms: _478  and  _479
REMARK  188  A    between atoms: _481  and  _483
REMARK  189  A    between atoms: _483  and  _484
REMARK  190  A    between atoms: _483  and  _486
REMARK  191  A    between atoms: _486  and  _487
REMARK  192  A    between atoms: _490  and  _492
REMARK  193  A    between atoms: _492  and  _493
REMARK  194  A    between atoms: _495  and  _497
REMARK  195  A    between atoms: _497  and  _498
REMARK  196  A    between atoms: _497  and  _500
REMARK  197  A    between atoms: _500  and  _501
REMARK  198  A    between atoms: _504  and  _506
REMARK  199  A    between atoms: _506  and  _507
REMARK  200  A    between atoms: _506  and  _509
REMARK  201  A    between atoms: _509  and  _510
REMARK  202  A    between atoms: _515  and  _516
REMARK  203  A    between atoms: _518  and  _520
REMARK  204  A    between atoms: _520  and  _521
REMARK  205  A    between atoms: _520  and  _523
REMARK  206  A    between atoms: _523  and  _524
REMARK  207  A    between atoms: _527  and  _529
REMARK  208  A    between atoms: _529  and  _530
REMARK  209  A    between atoms: _529  and  _532
REMARK  210  A    between atoms: _532  and  _533
REMARK  211  A    between atoms: _538  and  _540
REMARK  212  A    between atoms: _540  and  _541
REMARK  213  A    between atoms: _544  and  _546
REMARK  214  A    between atoms: _546  and  _547
REMARK  215  A    between atoms: _546  and  _549
REMARK  216  A    between atoms: _552  and  _554
REMARK  217  A    between atoms: _554  and  _555
REMARK  218  A    between atoms: _558  and  _560
REMARK  219  A    between atoms: _560  and  _561
REMARK  220  A    between atoms: _560  and  _563
REMARK  221  A    between atoms: _563  and  _564
REMARK  222  A    between atoms: _567  and  _569
REMARK  223  A    between atoms: _569  and  _570
REMARK  224  A    between atoms: _569  and  _572
REMARK  225  A    between atoms: _572  and  _573
REMARK  226  A    between atoms: _573  and  _574
REMARK  227  A    between atoms: _574  and  _575
REMARK  228  A    between atoms: _584  and  _586
REMARK  229  A    between atoms: _586  and  _587
REMARK  230  A    between atoms: _586  and  _589
REMARK  231  A    between atoms: _589  and  _590
REMARK  232  A    between atoms: _593  and  _595
REMARK  233  A    between atoms: _595  and  _596
REMARK  234  A    between atoms: _599  and  _601
REMARK  235  A    between atoms: _601  and  _602
REMARK  236  A    between atoms: _605  and  _607
REMARK  237  A    between atoms: _607  and  _608
REMARK  238  A    between atoms: _607  and  _610
REMARK  239  A    between atoms: _610  and  _611
REMARK  240  A    between atoms: _611  and  _612
REMARK                            x       y       z     vdW  Elec       q    Type
REMARK                         _______ _______ _______ _____ _____    ______ ____
ROOT
ATOM      1  C   GLY A   5     -44.384 -55.563 -50.946  0.00  0.00    +0.243 C 
ATOM      2  N   LEU A   6     -43.699 -54.415 -50.984  0.00  0.00    -0.297 N 
ATOM      3  H   LEU A   6     -42.869 -54.317 -50.366  0.00  0.00    +0.150 HD
ATOM      4  O   GLY A   5     -45.422 -55.761 -51.623  0.00  0.00    -0.273 OA
ENDROOT
BRANCH   2   5
ATOM      5  CA  LEU A   6     -44.051 -53.302 -51.839  0.00  0.00    +0.149 C 
BRANCH   5   6
ATOM      6  C   LEU A   6     -43.960 -53.663 -53.338  0.00  0.00    +0.241 C 
ATOM      7  N   THR A   7     -43.152 -54.657 -53.716  0.00  0.00    -0.295 N 
ATOM      8  H   THR A   7     -42.498 -55.072 -53.022  0.00  0.00    +0.150 HD
ATOM      9  O   LEU A   6     -44.663 -53.065 -54.108  0.00  0.00    -0.273 OA
BRANCH   7  10
ATOM     10  CA  THR A   7     -43.167 -55.182 -55.104  0.00  0.00    +0.176 C 
BRANCH  10  11
ATOM     11  C   THR A   7     -44.611 -55.405 -55.574  0.00  0.00    +0.243 C 
ATOM     12  N   HIS A   8     -45.451 -55.909 -54.676  0.00  0.00    -0.297 N 
ATOM     13  H   HIS A   8     -45.193 -55.936 -53.669  0.00  0.00    +0.150 HD
ATOM     14  O   THR A   7     -44.975 -55.064 -56.698  0.00  0.00    -0.273 OA
BRANCH  12  15
ATOM     15  CA  HIS A   8     -46.772 -56.437 -55.136  0.00  0.00    +0.155 C 
BRANCH  15  16
ATOM     16  C   HIS A   8     -47.882 -55.392 -54.891  0.00  0.00    +0.241 C 
ATOM     17  N   THR A   9     -47.509 -54.325 -54.230  0.00  0.00    -0.296 N 
ATOM     18  H   THR A   9     -46.497 -54.120 -54.108  0.00  0.00    +0.150 HD
ATOM     19  O   HIS A   8     -49.057 -55.612 -55.218  0.00  0.00    -0.273 OA
BRANCH  17  20
ATOM     20  CA  THR A   9     -48.523 -53.405 -53.653  0.00  0.00    +0.164 C 
BRANCH  20  21
ATOM     21  C   THR A   9     -48.379 -51.935 -54.043  0.00  0.00    +0.229 C 
ATOM     22  O   THR A   9     -49.361 -51.219 -54.119  0.00  0.00    -0.286 OA
ENDBRANCH  20  21
BRANCH  20  23
ATOM     23  CB  THR A   9     -48.585 -53.497 -52.143  0.00  0.00    +0.136 C 
ATOM     24  CG2 THR A   9     -48.689 -54.962 -51.648  0.00  0.00    +0.034 C 
BRANCH  23  25
ATOM     25  OG1 THR A   9     -47.435 -52.850 -51.593  0.00  0.00    -0.382 OA
ATOM     26  HG1 THR A   9     -47.428 -51.900 -51.871  0.00  0.00    +0.210 HD
ENDBRANCH  23  25
ENDBRANCH  20  23
ENDBRANCH  17  20
ENDBRANCH  15  16
BRANCH  15  27
ATOM     27  CB  HIS A   8     -47.072 -57.702 -54.379  0.00  0.00    +0.076 C 
BRANCH  27  28
ATOM     28  CG  HIS A   8     -45.884 -58.627 -54.281  0.00  0.00    +0.082 A 
ATOM     29  CD2 HIS A   8     -45.136 -58.996 -53.219  0.00  0.00    +0.115 A 
ATOM     30  NE2 HIS A   8     -44.149 -59.838 -53.683  0.00  0.00    -0.221 NA
ATOM     31  CE1 HIS A   8     -44.286 -59.985 -55.006  0.00  0.00    +0.199 A 
ATOM     32  ND1 HIS A   8     -45.312 -59.237 -55.396  0.00  0.00    -0.227 NA
ENDBRANCH  27  28
ENDBRANCH  15  27
ENDBRANCH  12  15
ENDBRANCH  10  11
BRANCH  10  33
ATOM     33  CB  THR A   7     -42.455 -56.553 -55.158  0.00  0.00    +0.137 C 
ATOM     34  CG2 THR A   7     -42.245 -57.034 -56.603  0.00  0.00    +0.034 C 
BRANCH  33  35
ATOM     35  OG1 THR A   7     -41.201 -56.372 -54.552  0.00  0.00    -0.382 OA
ATOM     36  HG1 THR A   7     -41.328 -56.074 -53.616  0.00  0.00    +0.210 HD
ENDBRANCH  33  35
ENDBRANCH  10  33
ENDBRANCH   7  10
ENDBRANCH   5   6
BRANCH   5  37
ATOM     37  CB  LEU A   6     -43.141 -52.083 -51.575  0.00  0.00    +0.029 C 
BRANCH  37  38
ATOM     38  CG  LEU A   6     -43.193 -51.484 -50.177  0.00  0.00    +0.002 C 
ATOM     39  CD2 LEU A   6     -44.531 -50.941 -49.742  0.00  0.00    +0.000 C 
ATOM     40  CD1 LEU A   6     -42.130 -50.374 -50.071  0.00  0.00    +0.000 C 
ENDBRANCH  37  38
ENDBRANCH   5  37
ENDBRANCH   2   5
BRANCH   1  41
ATOM     41  CA  GLY A   5     -43.774 -56.662 -50.077  0.00  0.00    +0.176 C 
BRANCH  41  43
ATOM     42  C   GLY A   4     -41.438 -56.657 -50.891  0.00  0.00    +0.243 C 
ATOM     43  N   GLY A   5     -42.302 -56.491 -49.867  0.00  0.00    -0.295 N 
ATOM     44  H   GLY A   5     -41.942 -56.242 -48.924  0.00  0.00    +0.150 HD
ATOM     45  O   GLY A   4     -41.782 -56.827 -52.094  0.00  0.00    -0.273 OA
BRANCH  42  46
ATOM     46  CA  GLY A   4     -39.977 -56.675 -50.554  0.00  0.00    +0.176 C 
BRANCH  46  49
ATOM     47  C   ALA A   3     -39.510 -54.576 -51.712  0.00  0.00    +0.241 C 
ATOM     48  O   ALA A   3     -40.319 -53.969 -50.971  0.00  0.00    -0.273 OA
ATOM     49  N   GLY A   4     -39.275 -55.887 -51.568  0.00  0.00    -0.295 N 
ATOM     50  H   GLY A   4     -38.582 -56.353 -52.188  0.00  0.00    +0.150 HD
BRANCH  47  51
ATOM     51  CA  ALA A   3     -38.704 -53.861 -52.803  0.00  0.00    +0.149 C 
ATOM     52  CB  ALA A   3     -39.630 -53.120 -53.879  0.00  0.00    +0.031 C 
BRANCH  51  55
ATOM     53  C   ASN A   2     -36.532 -54.921 -53.102  0.00  0.00    +0.241 C 
ATOM     54  O   ASN A   2     -36.164 -54.578 -52.025  0.00  0.00    -0.273 OA
ATOM     55  N   ALA A   3     -37.769 -54.677 -53.559  0.00  0.00    -0.297 N 
ATOM     56  H   ALA A   3     -38.065 -55.079 -54.471  0.00  0.00    +0.150 HD
BRANCH  53  57
ATOM     57  CA  ASN A   2     -35.564 -55.677 -54.012  0.00  0.00    +0.158 C 
BRANCH  57  59
ATOM     58  C   LEU A   1     -34.772 -54.312 -55.835  0.00  0.00    +0.238 C 
ATOM     59  N   ASN A   2     -34.717 -54.634 -54.557  0.00  0.00    -0.297 N 
ATOM     60  H   ASN A   2     -34.056 -54.132 -53.931  0.00  0.00    +0.150 HD
ATOM     61  O   LEU A   1     -35.322 -55.058 -56.698  0.00  0.00    -0.274 OA
BRANCH  58  62
ATOM     62  CA  LEU A   1     -34.101 -52.963 -56.207  0.00  0.00    +0.145 C 
BRANCH  62  63
ATOM     63  N   LEU A   1     -33.066 -53.222 -57.211  0.00  0.00    -0.238 NA
ATOM     64  H   LEU A   1     -33.324 -53.728 -58.082  0.00  0.00    +0.142 HD
ENDBRANCH  62  63
BRANCH  62  65
ATOM     65  CB  LEU A   1     -35.133 -51.967 -56.750  0.00  0.00    +0.026 C 
BRANCH  65  66
ATOM     66  CG  LEU A   1     -36.411 -51.728 -55.917  0.00  0.00    +0.002 C 
ATOM     67  CD2 LEU A   1     -36.099 -51.211 -54.509  0.00  0.00    +0.000 C 
ATOM     68  CD1 LEU A   1     -37.332 -50.799 -56.803  0.00  0.00    +0.000 C 
ENDBRANCH  65  66
ENDBRANCH  62  65
ENDBRANCH  58  62
ENDBRANCH  57  59
BRANCH  57  69
ATOM     69  CB  ASN A   2     -34.753 -56.656 -53.167  0.00  0.00    +0.114 C 
BRANCH  69  70
ATOM     70  CG  ASN A   2     -35.604 -57.804 -52.627  0.00  0.00    +0.222 C 
ATOM     71  ND2 ASN A   2     -34.948 -58.900 -52.176  0.00  0.00    -0.329 N 
ATOM     72 HD21 ASN A   2     -35.484 -59.713 -51.810  0.00  0.00    +0.145 HD
ATOM     73 HD22 ASN A   2     -33.909 -58.929 -52.195  0.00  0.00    +0.145 HD
ATOM     74  OD1 ASN A   2     -36.827 -57.715 -52.628  0.00  0.00    -0.275 OA
ENDBRANCH  69  70
ENDBRANCH  57  69
ENDBRANCH  53  57
ENDBRANCH  51  55
ENDBRANCH  47  51
ENDBRANCH  46  49
ENDBRANCH  42  46
ENDBRANCH  41  43
ENDBRANCH   1  41
TORSDOF 30
REMARK  Name = ../refined-set-2016/3n76/3n76_pocket.pdb
REMARK  240 active torsions:
REMARK  status: ('A' for Active; 'I' for Inactive)
REMARK    1  A    between atoms: _1  and  _3
REMARK    2  A    between atoms: _3  and  _4
REMARK    3  A    between atoms: _3  and  _6
REMARK    4  A    between atoms: _6  and  _7
REMARK    5  A    between atoms: _12  and  _14
REMARK    6  A    between atoms: _14  and  _15
REMARK    7  A    between atoms: _18  and  _19
REMARK    8  A    between atoms: _24  and  _26
REMARK    9  A    between atoms: _26  and  _27
REMARK   10  A    between atoms: _26  and  _29
REMARK   11  A    between atoms: _29  and  _30
REMARK   12  A    between atoms: _35  and  _37
REMARK   13  A    between atoms: _37  and  _38
REMARK   14  A    between atoms: _37  and  _40
REMARK   15  A    between atoms: _40  and  _41
REMARK   16  A    between atoms: _44  and  _46
REMARK   17  A    between atoms: _46  and  _47
REMARK   18  A    between atoms: _49  and  _51
REMARK   19  A    between atoms: _51  and  _52
REMARK   20  A    between atoms: _51  and  _54
REMARK   21  A    between atoms: _54  and  _55
REMARK   22  A    between atoms: _55  and  _56
REMARK   23  A    between atoms: _56  and  _57
REMARK   24  A    between atoms: _66  and  _68
REMARK   25  A    between atoms: _68  and  _69
REMARK   26  A    between atoms: _68  and  _71
REMARK   27  A    between atoms: _71  and  _72
REMARK   28  A    between atoms: _75  and  _77
REMARK   29  A    between atoms: _77  and  _78
REMARK   30  A    between atoms: _80  and  _82
REMARK   31  A    between atoms: _82  and  _83
REMARK   32  A    between atoms: _82  and  _85
REMARK   33  A    between atoms: _85  and  _86
REMARK   34  A    between atoms: _86  and  _87
REMARK   35  A    between atoms: _87  and  _88
REMARK   36  A    between atoms: _97  and  _99
REMARK   37  A    between atoms: _99  and  _100
REMARK   38  A    between atoms: _99  and  _102
REMARK   39  A    between atoms: _102  and  _103
REMARK   40  A    between atoms: _103  and  _104
REMARK   41  A    between atoms: _104  and  _105
REMARK   42  A    between atoms: _114  and  _116
REMARK   43  A    between atoms: _116  and  _117
REMARK   44  A    between atoms: _116  and  _119
REMARK   45  A    between atoms: _119  and  _120
REMARK   46  A    between atoms: _120  and  _121
REMARK   47  A    between atoms: _125  and  _126
REMARK   48  A    between atoms: _131  and  _133
REMARK   49  A    between atoms: _133  and  _134
REMARK   50  A    between atoms: _133  and  _136
REMARK   51  A    between atoms: _139  and  _141
REMARK   52  A    between atoms: _141  and  _142
REMARK   53  A    between atoms: _141  and  _144
REMARK   54  A    between atoms: _144  and  _145
REMARK   55  A    between atoms: _150  and  _151
REMARK   56  A    between atoms: _153  and  _155
REMARK   57  A    between atoms: _155  and  _156
REMARK   58  A    between atoms: _158  and  _160
REMARK   59  A    between atoms: _160  and  _161
REMARK   60  A    between atoms: _160  and  _163
REMARK   61  A    between atoms: _163  and  _164
REMARK   62  A    between atoms: _167  and  _169
REMARK   63  A    between atoms: _169  and  _170
REMARK   64  A    between atoms: _169  and  _172
REMARK   65  A    between atoms: _172  and  _173
REMARK   66  A    between atoms: _176  and  _178
REMARK   67  A    between atoms: _178  and  _179
REMARK   68  A    between atoms: _178  and  _181
REMARK   69  A    between atoms: _181  and  _182
REMARK   70  A    between atoms: _187  and  _189
REMARK   71  A    between atoms: _189  and  _190
REMARK   72  A    between atoms: _189  and  _192
REMARK   73  A    between atoms: _192  and  _193
REMARK   74  A    between atoms: _193  and  _194
REMARK   75  A    between atoms: _199  and  _201
REMARK   76  A    between atoms: _201  and  _202
REMARK   77  A    between atoms: _201  and  _204
REMARK   78  A    between atoms: _204  and  _205
REMARK   79  A    between atoms: _208  and  _210
REMARK   80  A    between atoms: _210  and  _211
REMARK   81  A    between atoms: _210  and  _213
REMARK   82  A    between atoms: _213  and  _214
REMARK   83  A    between atoms: _217  and  _219
REMARK   84  A    between atoms: _219  and  _220
REMARK   85  A    between atoms: _219  and  _222
REMARK   86  A    between atoms: _222  and  _223
REMARK   87  A    between atoms: _228  and  _230
REMARK   88  A    between atoms: _230  and  _231
REMARK   89  A    between atoms: _234  and  _236
REMARK   90  A    between atoms: _236  and  _237
REMARK   91  A    between atoms: _239  and  _241
REMARK   92  A    between atoms: _241  and  _242
REMARK   93  A    between atoms: _244  and  _246
REMARK   94  A    between atoms: _246  and  _247
REMARK   95  A    between atoms: _246  and  _249
REMARK   96  A    between atoms: _249  and  _250
REMARK   97  A    between atoms: _253  and  _255
REMARK   98  A    between atoms: _255  and  _256
REMARK   99  A    between atoms: _255  and  _258
REMARK  100  A    between atoms: _258  and  _259
REMARK  101  A    between atoms: _262  and  _264
REMARK  102  A    between atoms: _264  and  _265
REMARK  103  A    between atoms: _264  and  _267
REMARK  104  A    between atoms: _267  and  _268
REMARK  105  A    between atoms: _273  and  _275
REMARK  106  A    between atoms: _275  and  _276
REMARK  107  A    between atoms: _275  and  _278
REMARK  108  A    between atoms: _278  and  _279
REMARK  109  A    between atoms: _282  and  _284
REMARK  110  A    between atoms: _284  and  _285
REMARK  111  A    between atoms: _284  and  _287
REMARK  112  A    between atoms: _287  and  _288
REMARK  113  A    between atoms: _288  and  _289
REMARK  114  A    between atoms: _292  and  _294
REMARK  115  A    between atoms: _294  and  _295
REMARK  116  A    between atoms: _294  and  _297
REMARK  117  A    between atoms: _300  and  _302
REMARK  118  A    between atoms: _302  and  _303
REMARK  119  A    between atoms: _302  and  _305
REMARK  120  A    between atoms: _305  and  _306
REMARK  121  A    between atoms: _311  and  _313
REMARK  122  A    between atoms: _313  and  _314
REMARK  123  A    between atoms: _313  and  _316
REMARK  124  A    between atoms: _316  and  _317
REMARK  125  A    between atoms: _320  and  _322
REMARK  126  A    between atoms: _322  and  _323
REMARK  127  A    between atoms: _322  and  _325
REMARK  128  A    between atoms: _325  and  _326
REMARK  129  A    between atoms: _328  and  _330
REMARK  130  A    between atoms: _330  and  _331
REMARK  131  A    between atoms: _330  and  _333
REMARK  132  A    between atoms: _333  and  _334
REMARK  133  A    between atoms: _339  and  _341
REMARK  134  A    between atoms: _341  and  _342
REMARK  135  A    between atoms: _341  and  _344
REMARK  136  A    between atoms: _347  and  _349
REMARK  137  A    between atoms: _349  and  _350
REMARK  138  A    between atoms: _349  and  _352
REMARK  139  A    between atoms: _352  and  _353
REMARK  140  A    between atoms: _358  and  _360
REMARK  141  A    between atoms: _360  and  _361
REMARK  142  A    between atoms: _360  and  _363
REMARK  143  A    between atoms: _363  and  _364
REMARK  144  A    between atoms: _364  and  _365
REMARK  145  A    between atoms: _365  and  _366
REMARK  146  A    between atoms: _375  and  _377
REMARK  147  A    between atoms: _377  and  _378
REMARK  148  A    between atoms: _377  and  _380
REMARK  149  A    between atoms: _380  and  _381
REMARK  150  A    between atoms: _381  and  _382
REMARK  151  A    between atoms: _385  and  _387
REMARK  152  A    between atoms: _387  and  _388
REMARK  153  A    between atoms: _387  and  _390
REMARK  154  A    between atoms: _390  and  _391
REMARK  155  A    between atoms: _397  and  _399
REMARK  156  A    between atoms: _399  and  _400
REMARK  157  A    between atoms: _399  and  _402
REMARK  158  A    between atoms: _402  and  _403
REMARK  159  A    between atoms: _403  and  _404
REMARK  160  A    between atoms: _404  and  _405
REMARK  161  A    between atoms: _414  and  _416
REMARK  162  A    between atoms: _416  and  _417
REMARK  163  A    between atoms: _416  and  _419
REMARK  164  A    between atoms: _419  and  _420
REMARK  165  A    between atoms: _420  and  _421
REMARK  166  A    between atoms: _421  and  _422
REMARK  167  A    between atoms: _431  and  _433
REMARK  168  A    between atoms: _433  and  _434
REMARK  169  A    between atoms: _433  and  _436
REMARK  170  A    between atoms: _436  and  _437
REMARK  171  A    between atoms: _442  and  _444
REMARK  172  A    between atoms: _444  and  _445
REMARK  173  A    between atoms: _444  and  _447
REMARK  174  A    between atoms: _447  and  _448
REMARK  175  A    between atoms: _450  and  _452
REMARK  176  A    between atoms: _452  and  _453
REMARK  177  A    between atoms: _452  and  _455
REMARK  178  A    between atoms: _455  and  _456
REMARK  179  A    between atoms: _459  and  _461
REMARK  180  A    between atoms: _461  and  _462
REMARK  181  A    between atoms: _461  and  _464
REMARK  182  A    between atoms: _464  and  _465
REMARK  183  A    between atoms: _468  and  _470
REMARK  184  A    between atoms: _470  and  _471
REMARK  185  A    between atoms: _470  and  _473
REMARK  186  A    between atoms: _476  and  _478
REMARK  187  A    between atoms: _478  and  _479
REMARK  188  A    between atoms: _481  and  _483
REMARK  189  A    between atoms: _483  and  _484
REMARK  190  A    between atoms: _483  and  _486
REMARK  191  A    between atoms: _486  and  _487
REMARK  192  A    between atoms: _490  and  _492
REMARK  193  A    between atoms: _492  and  _493
REMARK  194  A    between atoms: _495  and  _497
REMARK  195  A    between atoms: _497  and  _498
REMARK  196  A    between atoms: _497  and  _500
REMARK  197  A    between atoms: _500  and  _501
REMARK  198  A    between atoms: _504  and  _506
REMARK  199  A    between atoms: _506  and  _507
REMARK  200  A    between atoms: _506  and  _509
REMARK  201  A    between atoms: _509  and  _510
REMARK  202  A    between atoms: _515  and  _516
REMARK  203  A    between atoms: _518  and  _520
REMARK  204  A    between atoms: _520  and  _521
REMARK  205  A    between atoms: _520  and  _523
REMARK  206  A    between atoms: _523  and  _524
REMARK  207  A    between atoms: _527  and  _529
REMARK  208  A    between atoms: _529  and  _530
REMARK  209  A    between atoms: _529  and  _532
REMARK  210  A    between atoms: _532  and  _533
REMARK  211  A    between atoms: _538  and  _540
REMARK  212  A    between atoms: _540  and  _541
REMARK  213  A    between atoms: _544  and  _546
REMARK  214  A    between atoms: _546  and  _547
REMARK  215  A    between atoms: _546  and  _549
REMARK  216  A    between atoms: _552  and  _554
REMARK  217  A    between atoms: _554  and  _555
REMARK  218  A    between atoms: _558  and  _560
REMARK  219  A    between atoms: _560  and  _561
REMARK  220  A    between atoms: _560  and  _563
REMARK  221  A    between atoms: _563  and  _564
REMARK  222  A    between atoms: _567  and  _569
REMARK  223  A    between atoms: _569  and  _570
REMARK  224  A    between atoms: _569  and  _572
REMARK  225  A    between atoms: _572  and  _573
REMARK  226  A    between atoms: _573  and  _574
REMARK  227  A    between atoms: _574  and  _575
REMARK  228  A    between atoms: _584  and  _586
REMARK  229  A    between atoms: _586  and  _587
REMARK  230  A    between atoms: _586  and  _589
REMARK  231  A    between atoms: _589  and  _590
REMARK  232  A    between atoms: _593  and  _595
REMARK  233  A    between atoms: _595  and  _596
REMARK  234  A    between atoms: _599  and  _601
REMARK  235  A    between atoms: _601  and  _602
REMARK  236  A    between atoms: _605  and  _607
REMARK  237  A    between atoms: _607  and  _608
REMARK  238  A    between atoms: _607  and  _610
REMARK  239  A    between atoms: _610  and  _611
REMARK  240  A    between atoms: _611  and  _612
REMARK                            x       y       z     vdW  Elec       q    Type
REMARK                         _______ _______ _______ _____ _____    ______ ____
ROOT
ATOM      1  C   ILE A   4     -34.860 -64.942 -53.284  0.00  0.00    +0.241 C 
ATOM      2  N   SER A   5     -36.112 -65.001 -52.864  0.00  0.00    -0.295 N 
ATOM      3  H   SER A   5     -36.532 -64.142 -52.456  0.00  0.00    +0.150 HD
ATOM      4  O   ILE A   4     -34.254 -65.910 -53.825  0.00  0.00    -0.273 OA
ENDROOT
BRANCH   1   5
ATOM      5  CA  ILE A   4     -34.169 -63.637 -53.119  0.00  0.00    +0.149 C 
BRANCH   5   7
ATOM      6  C   HIS A   3     -35.222 -62.426 -54.990  0.00  0.00    +0.241 C 
ATOM      7  N   ILE A   4     -34.950 -62.518 -53.707  0.00  0.00    -0.297 N 
ATOM      8  H   ILE A   4     -35.298 -61.771 -53.073  0.00  0.00    +0.150 HD
ATOM      9  O   HIS A   3     -34.820 -63.226 -55.849  0.00  0.00    -0.273 OA
BRANCH   6  10
ATOM     10  CA  HIS A   3     -36.163 -61.324 -55.325  0.00  0.00    +0.155 C 
BRANCH  10  13
ATOM     11  C   VAL A   2     -35.276 -59.268 -56.445  0.00  0.00    +0.241 C 
ATOM     12  O   VAL A   2     -35.725 -58.460 -55.616  0.00  0.00    -0.273 OA
ATOM     13  N   HIS A   3     -35.577 -60.563 -56.487  0.00  0.00    -0.297 N 
ATOM     14  H   HIS A   3     -35.398 -61.080 -57.372  0.00  0.00    +0.150 HD
BRANCH  11  15
ATOM     15  CA  VAL A   2     -34.321 -58.792 -57.521  0.00  0.00    +0.148 C 
BRANCH  15  17
ATOM     16  C   GLU A   1     -35.080 -57.443 -59.408  0.00  0.00    +0.238 C 
ATOM     17  N   VAL A   2     -34.904 -57.567 -58.087  0.00  0.00    -0.297 N 
ATOM     18  H   VAL A   2     -35.182 -56.789 -57.455  0.00  0.00    +0.150 HD
ATOM     19  O   GLU A   1     -34.847 -58.356 -60.185  0.00  0.00    -0.274 OA
BRANCH  16  20
ATOM     20  CA  GLU A   1     -35.623 -56.126 -59.926  0.00  0.00    +0.145 C 
BRANCH  20  21
ATOM     21  N   GLU A   1     -34.820 -55.605 -60.985  0.00  0.00    -0.238 NA
ATOM     22  H   GLU A   1     -35.136 -55.785 -61.959  0.00  0.00    +0.142 HD
ENDBRANCH  20  21
BRANCH  20  23
ATOM     23  CB  GLU A   1     -37.058 -56.274 -60.477  0.00  0.00    +0.038 C 
BRANCH  23  24
ATOM     24  CG  GLU A   1     -38.072 -56.754 -59.399  0.00  0.00    +0.116 C 
BRANCH  24  25
ATOM     25  CD  GLU A   1     -39.496 -56.944 -59.933  0.00  0.00    +0.365 C 
ATOM     26  OE2 GLU A   1     -40.371 -57.316 -59.156  0.00  0.00    -0.246 OA
ATOM     27  OE1 GLU A   1     -39.771 -56.683 -61.128  0.00  0.00    -0.246 OA
ENDBRANCH  24  25
ENDBRANCH  23  24
ENDBRANCH  20  23
ENDBRANCH  16  20
ENDBRANCH  15  17
BRANCH  15  28
ATOM     28  CB  VAL A   2     -32.840 -58.569 -56.949  0.00  0.00    +0.027 C 
ATOM     29  CG2 VAL A   2     -32.334 -59.784 -56.312  0.00  0.00    +0.002 C 
ATOM     30  CG1 VAL A   2     -31.864 -58.151 -58.092  0.00  0.00    +0.002 C 
ENDBRANCH  15  28
ENDBRANCH  11  15
ENDBRANCH  10  13
BRANCH  10  31
ATOM     31  CB  HIS A   3     -37.564 -61.835 -55.694  0.00  0.00    +0.076 C 
BRANCH  31  32
ATOM     32  CG  HIS A   3     -38.454 -60.731 -56.133  0.00  0.00    +0.082 A 
ATOM     33  ND1 HIS A   3     -39.054 -59.870 -55.236  0.00  0.00    -0.227 NA
ATOM     34  CE1 HIS A   3     -39.729 -58.951 -55.899  0.00  0.00    +0.199 A 
ATOM     35  NE2 HIS A   3     -39.550 -59.152 -57.195  0.00  0.00    -0.221 NA
ATOM     36  CD2 HIS A   3     -38.767 -60.270 -57.368  0.00  0.00    +0.115 A 
ENDBRANCH  31  32
ENDBRANCH  10  31
ENDBRANCH   6  10
ENDBRANCH   5   7
BRANCH   5  37
ATOM     37  CB  ILE A   4     -33.830 -63.325 -51.651  0.00  0.00    +0.027 C 
ATOM     38  CG2 ILE A   4     -33.116 -64.570 -50.824  0.00  0.00    +0.002 C 
BRANCH  37  39
ATOM     39  CG1 ILE A   4     -32.899 -62.112 -51.674  0.00  0.00    +0.002 C 
ATOM     40  CD1 ILE A   4     -32.839 -61.511 -50.189  0.00  0.00    +0.000 C 
ENDBRANCH  37  39
ENDBRANCH   5  37
ENDBRANCH   1   5
BRANCH   2  41
ATOM     41  CA  SER A   5     -36.956 -66.224 -52.941  0.00  0.00    +0.178 C 
BRANCH  41  42
ATOM     42  C   SER A   5     -37.563 -66.374 -54.364  0.00  0.00    +0.243 C 
ATOM     43  N   ASN A   6     -37.980 -67.578 -54.753  0.00  0.00    -0.297 N 
ATOM     44  H   ASN A   6     -37.789 -68.425 -54.180  0.00  0.00    +0.150 HD
ATOM     45  O   SER A   5     -37.653 -65.407 -55.135  0.00  0.00    -0.273 OA
BRANCH  43  46
ATOM     46  CA  ASN A   6     -38.709 -67.667 -56.002  0.00  0.00    +0.158 C 
BRANCH  46  47
ATOM     47  C   ASN A   6     -40.195 -67.339 -55.686  0.00  0.00    +0.241 C 
ATOM     48  O   ASN A   6     -40.974 -68.183 -55.153  0.00  0.00    -0.273 OA
ATOM     49  N   VAL A   7     -40.595 -66.134 -56.091  0.00  0.00    -0.297 N 
ATOM     50  H   VAL A   7     -39.956 -65.564 -56.681  0.00  0.00    +0.150 HD
BRANCH  49  51
ATOM     51  CA  VAL A   7     -41.913 -65.583 -55.730  0.00  0.00    +0.149 C 
BRANCH  51  52
ATOM     52  C   VAL A   7     -43.025 -66.260 -56.514  0.00  0.00    +0.241 C 
ATOM     53  O   VAL A   7     -44.206 -66.042 -56.231  0.00  0.00    -0.273 OA
ATOM     54  N   HIS A   8     -42.634 -67.060 -57.517  0.00  0.00    -0.298 N 
ATOM     55  H   HIS A   8     -41.632 -67.097 -57.794  0.00  0.00    +0.150 HD
BRANCH  54  56
ATOM     56  CA  HIS A   8     -43.617 -67.878 -58.218  0.00  0.00    +0.143 C 
BRANCH  56  57
ATOM     57  C   HIS A   8     -43.915 -69.250 -57.629  0.00  0.00    +0.227 C 
ATOM     58  O   HIS A   8     -44.823 -69.938 -58.133  0.00  0.00    -0.286 OA
ENDBRANCH  56  57
BRANCH  56  59
ATOM     59  CB  HIS A   8     -43.209 -67.994 -59.691  0.00  0.00    +0.075 C 
BRANCH  59  60
ATOM     60  CG  HIS A   8     -43.074 -66.657 -60.365  0.00  0.00    +0.082 A 
ATOM     61  CD2 HIS A   8     -41.979 -65.907 -60.687  0.00  0.00    +0.115 A 
ATOM     62  NE2 HIS A   8     -42.436 -64.757 -61.291  0.00  0.00    -0.221 NA
ATOM     63  CE1 HIS A   8     -43.758 -64.811 -61.361  0.00  0.00    +0.199 A 
ATOM     64  ND1 HIS A   8     -44.164 -65.947 -60.807  0.00  0.00    -0.227 NA
ENDBRANCH  59  60
ENDBRANCH  56  59
ENDBRANCH  54  56
ENDBRANCH  51  52
BRANCH  51  65
ATOM     65  CB  VAL A   7     -41.974 -64.060 -55.950  0.00  0.00    +0.027 C 
ATOM     66  CG2 VAL A   7     -41.044 -63.326 -54.950  0.00  0.00    +0.002 C 
ATOM     67  CG1 VAL A   7     -41.596 -63.761 -57.421  0.00  0.00    +0.002 C 
ENDBRANCH  51  65
ENDBRANCH  49  51
ENDBRANCH  46  47
BRANCH  46  68
ATOM     68  CB  ASN A   6     -38.542 -69.095 -56.627  0.00  0.00    +0.114 C 
BRANCH  68  69
ATOM     69  CG  ASN A   6     -39.293 -69.257 -57.924  0.00  0.00    +0.222 C 
ATOM     70  OD1 ASN A   6     -40.130 -68.410 -58.328  0.00  0.00    -0.275 OA
ATOM     71  ND2 ASN A   6     -38.966 -70.348 -58.636  0.00  0.00    -0.329 N 
ATOM     72 HD21 ASN A   6     -38.268 -71.023 -58.263  0.00  0.00    +0.145 HD
ATOM     73 HD22 ASN A   6     -39.411 -70.518 -59.561  0.00  0.00    +0.145 HD
ENDBRANCH  68  69
ENDBRANCH  46  68
ENDBRANCH  43  46
ENDBRANCH  41  42
BRANCH  41  74
ATOM     74  CB  SER A   5     -38.057 -66.162 -51.858  0.00  0.00    +0.166 C 
BRANCH  74  75
ATOM     75  OG  SER A   5     -39.115 -65.230 -52.213  0.00  0.00    -0.380 OA
ATOM     76  H   SER A   5     -38.732 -64.323 -52.319  0.00  0.00    +0.211 HD
ENDBRANCH  74  75
ENDBRANCH  41  74
ENDBRANCH   2  41
TORSDOF 31
REMARK  Name = ../refined-set-2016/3n76/3n76_pocket.pdb
REMARK  240 active torsions:
REMARK  status: ('A' for Active; 'I' for Inactive)
REMARK    1  A    between atoms: _1  and  _3
REMARK    2  A    between atoms: _3  and  _4
REMARK    3  A    between atoms: _3  and  _6
REMARK    4  A    between atoms: _6  and  _7
REMARK    5  A    between atoms: _12  and  _14
REMARK    6  A    between atoms: _14  and  _15
REMARK    7  A    between atoms: _18  and  _19
REMARK    8  A    between atoms: _24  and  _26
REMARK    9  A    between atoms: _26  and  _27
REMARK   10  A    between atoms: _26  and  _29
REMARK   11  A    between atoms: _29  and  _30
REMARK   12  A    between atoms: _35  and  _37
REMARK   13  A    between atoms: _37  and  _38
REMARK   14  A    between atoms: _37  and  _40
REMARK   15  A    between atoms: _40  and  _41
REMARK   16  A    between atoms: _44  and  _46
REMARK   17  A    between atoms: _46  and  _47
REMARK   18  A    between atoms: _49  and  _51
REMARK   19  A    between atoms: _51  and  _52
REMARK   20  A    between atoms: _51  and  _54
REMARK   21  A    between atoms: _54  and  _55
REMARK   22  A    between atoms: _55  and  _56
REMARK   23  A    between atoms: _56  and  _57
REMARK   24  A    between atoms: _66  and  _68
REMARK   25  A    between atoms: _68  and  _69
REMARK   26  A    between atoms: _68  and  _71
REMARK   27  A    between atoms: _71  and  _72
REMARK   28  A    between atoms: _75  and  _77
REMARK   29  A    between atoms: _77  and  _78
REMARK   30  A    between atoms: _80  and  _82
REMARK   31  A    between atoms: _82  and  _83
REMARK   32  A    between atoms: _82  and  _85
REMARK   33  A    between atoms: _85  and  _86
REMARK   34  A    between atoms: _86  and  _87
REMARK   35  A    between atoms: _87  and  _88
REMARK   36  A    between atoms: _97  and  _99
REMARK   37  A    between atoms: _99  and  _100
REMARK   38  A    between atoms: _99  and  _102
REMARK   39  A    between atoms: _102  and  _103
REMARK   40  A    between atoms: _103  and  _104
REMARK   41  A    between atoms: _104  and  _105
REMARK   42  A    between atoms: _114  and  _116
REMARK   43  A    between atoms: _116  and  _117
REMARK   44  A    between atoms: _116  and  _119
REMARK   45  A    between atoms: _119  and  _120
REMARK   46  A    between atoms: _120  and  _121
REMARK   47  A    between atoms: _125  and  _126
REMARK   48  A    between atoms: _131  and  _133
REMARK   49  A    between atoms: _133  and  _134
REMARK   50  A    between atoms: _133  and  _136
REMARK   51  A    between atoms: _139  and  _141
REMARK   52  A    between atoms: _141  and  _142
REMARK   53  A    between atoms: _141  and  _144
REMARK   54  A    between atoms: _144  and  _145
REMARK   55  A    between atoms: _150  and  _151
REMARK   56  A    between atoms: _153  and  _155
REMARK   57  A    between atoms: _155  and  _156
REMARK   58  A    between atoms: _158  and  _160
REMARK   59  A    between atoms: _160  and  _161
REMARK   60  A    between atoms: _160  and  _163
REMARK   61  A    between atoms: _163  and  _164
REMARK   62  A    between atoms: _167  and  _169
REMARK   63  A    between atoms: _169  and  _170
REMARK   64  A    between atoms: _169  and  _172
REMARK   65  A    between atoms: _172  and  _173
REMARK   66  A    between atoms: _176  and  _178
REMARK   67  A    between atoms: _178  and  _179
REMARK   68  A    between atoms: _178  and  _181
REMARK   69  A    between atoms: _181  and  _182
REMARK   70  A    between atoms: _187  and  _189
REMARK   71  A    between atoms: _189  and  _190
REMARK   72  A    between atoms: _189  and  _192
REMARK   73  A    between atoms: _192  and  _193
REMARK   74  A    between atoms: _193  and  _194
REMARK   75  A    between atoms: _199  and  _201
REMARK   76  A    between atoms: _201  and  _202
REMARK   77  A    between atoms: _201  and  _204
REMARK   78  A    between atoms: _204  and  _205
REMARK   79  A    between atoms: _208  and  _210
REMARK   80  A    between atoms: _210  and  _211
REMARK   81  A    between atoms: _210  and  _213
REMARK   82  A    between atoms: _213  and  _214
REMARK   83  A    between atoms: _217  and  _219
REMARK   84  A    between atoms: _219  and  _220
REMARK   85  A    between atoms: _219  and  _222
REMARK   86  A    between atoms: _222  and  _223
REMARK   87  A    between atoms: _228  and  _230
REMARK   88  A    between atoms: _230  and  _231
REMARK   89  A    between atoms: _234  and  _236
REMARK   90  A    between atoms: _236  and  _237
REMARK   91  A    between atoms: _239  and  _241
REMARK   92  A    between atoms: _241  and  _242
REMARK   93  A    between atoms: _244  and  _246
REMARK   94  A    between atoms: _246  and  _247
REMARK   95  A    between atoms: _246  and  _249
REMARK   96  A    between atoms: _249  and  _250
REMARK   97  A    between atoms: _253  and  _255
REMARK   98  A    between atoms: _255  and  _256
REMARK   99  A    between atoms: _255  and  _258
REMARK  100  A    between atoms: _258  and  _259
REMARK  101  A    between atoms: _262  and  _264
REMARK  102  A    between atoms: _264  and  _265
REMARK  103  A    between atoms: _264  and  _267
REMARK  104  A    between atoms: _267  and  _268
REMARK  105  A    between atoms: _273  and  _275
REMARK  106  A    between atoms: _275  and  _276
REMARK  107  A    between atoms: _275  and  _278
REMARK  108  A    between atoms: _278  and  _279
REMARK  109  A    between atoms: _282  and  _284
REMARK  110  A    between atoms: _284  and  _285
REMARK  111  A    between atoms: _284  and  _287
REMARK  112  A    between atoms: _287  and  _288
REMARK  113  A    between atoms: _288  and  _289
REMARK  114  A    between atoms: _292  and  _294
REMARK  115  A    between atoms: _294  and  _295
REMARK  116  A    between atoms: _294  and  _297
REMARK  117  A    between atoms: _300  and  _302
REMARK  118  A    between atoms: _302  and  _303
REMARK  119  A    between atoms: _302  and  _305
REMARK  120  A    between atoms: _305  and  _306
REMARK  121  A    between atoms: _311  and  _313
REMARK  122  A    between atoms: _313  and  _314
REMARK  123  A    between atoms: _313  and  _316
REMARK  124  A    between atoms: _316  and  _317
REMARK  125  A    between atoms: _320  and  _322
REMARK  126  A    between atoms: _322  and  _323
REMARK  127  A    between atoms: _322  and  _325
REMARK  128  A    between atoms: _325  and  _326
REMARK  129  A    between atoms: _328  and  _330
REMARK  130  A    between atoms: _330  and  _331
REMARK  131  A    between atoms: _330  and  _333
REMARK  132  A    between atoms: _333  and  _334
REMARK  133  A    between atoms: _339  and  _341
REMARK  134  A    between atoms: _341  and  _342
REMARK  135  A    between atoms: _341  and  _344
REMARK  136  A    between atoms: _347  and  _349
REMARK  137  A    between atoms: _349  and  _350
REMARK  138  A    between atoms: _349  and  _352
REMARK  139  A    between atoms: _352  and  _353
REMARK  140  A    between atoms: _358  and  _360
REMARK  141  A    between atoms: _360  and  _361
REMARK  142  A    between atoms: _360  and  _363
REMARK  143  A    between atoms: _363  and  _364
REMARK  144  A    between atoms: _364  and  _365
REMARK  145  A    between atoms: _365  and  _366
REMARK  146  A    between atoms: _375  and  _377
REMARK  147  A    between atoms: _377  and  _378
REMARK  148  A    between atoms: _377  and  _380
REMARK  149  A    between atoms: _380  and  _381
REMARK  150  A    between atoms: _381  and  _382
REMARK  151  A    between atoms: _385  and  _387
REMARK  152  A    between atoms: _387  and  _388
REMARK  153  A    between atoms: _387  and  _390
REMARK  154  A    between atoms: _390  and  _391
REMARK  155  A    between atoms: _397  and  _399
REMARK  156  A    between atoms: _399  and  _400
REMARK  157  A    between atoms: _399  and  _402
REMARK  158  A    between atoms: _402  and  _403
REMARK  159  A    between atoms: _403  and  _404
REMARK  160  A    between atoms: _404  and  _405
REMARK  161  A    between atoms: _414  and  _416
REMARK  162  A    between atoms: _416  and  _417
REMARK  163  A    between atoms: _416  and  _419
REMARK  164  A    between atoms: _419  and  _420
REMARK  165  A    between atoms: _420  and  _421
REMARK  166  A    between atoms: _421  and  _422
REMARK  167  A    between atoms: _431  and  _433
REMARK  168  A    between atoms: _433  and  _434
REMARK  169  A    between atoms: _433  and  _436
REMARK  170  A    between atoms: _436  and  _437
REMARK  171  A    between atoms: _442  and  _444
REMARK  172  A    between atoms: _444  and  _445
REMARK  173  A    between atoms: _444  and  _447
REMARK  174  A    between atoms: _447  and  _448
REMARK  175  A    between atoms: _450  and  _452
REMARK  176  A    between atoms: _452  and  _453
REMARK  177  A    between atoms: _452  and  _455
REMARK  178  A    between atoms: _455  and  _456
REMARK  179  A    between atoms: _459  and  _461
REMARK  180  A    between atoms: _461  and  _462
REMARK  181  A    between atoms: _461  and  _464
REMARK  182  A    between atoms: _464  and  _465
REMARK  183  A    between atoms: _468  and  _470
REMARK  184  A    between atoms: _470  and  _471
REMARK  185  A    between atoms: _470  and  _473
REMARK  186  A    between atoms: _476  and  _478
REMARK  187  A    between atoms: _478  and  _479
REMARK  188  A    between atoms: _481  and  _483
REMARK  189  A    between atoms: _483  and  _484
REMARK  190  A    between atoms: _483  and  _486
REMARK  191  A    between atoms: _486  and  _487
REMARK  192  A    between atoms: _490  and  _492
REMARK  193  A    between atoms: _492  and  _493
REMARK  194  A    between atoms: _495  and  _497
REMARK  195  A    between atoms: _497  and  _498
REMARK  196  A    between atoms: _497  and  _500
REMARK  197  A    between atoms: _500  and  _501
REMARK  198  A    between atoms: _504  and  _506
REMARK  199  A    between atoms: _506  and  _507
REMARK  200  A    between atoms: _506  and  _509
REMARK  201  A    between atoms: _509  and  _510
REMARK  202  A    between atoms: _515  and  _516
REMARK  203  A    between atoms: _518  and  _520
REMARK  204  A    between atoms: _520  and  _521
REMARK  205  A    between atoms: _520  and  _523
REMARK  206  A    between atoms: _523  and  _524
REMARK  207  A    between atoms: _527  and  _529
REMARK  208  A    between atoms: _529  and  _530
REMARK  209  A    between atoms: _529  and  _532
REMARK  210  A    between atoms: _532  and  _533
REMARK  211  A    between atoms: _538  and  _540
REMARK  212  A    between atoms: _540  and  _541
REMARK  213  A    between atoms: _544  and  _546
REMARK  214  A    between atoms: _546  and  _547
REMARK  215  A    between atoms: _546  and  _549
REMARK  216  A    between atoms: _552  and  _554
REMARK  217  A    between atoms: _554  and  _555
REMARK  218  A    between atoms: _558  and  _560
REMARK  219  A    between atoms: _560  and  _561
REMARK  220  A    between atoms: _560  and  _563
REMARK  221  A    between atoms: _563  and  _564
REMARK  222  A    between atoms: _567  and  _569
REMARK  223  A    between atoms: _569  and  _570
REMARK  224  A    between atoms: _569  and  _572
REMARK  225  A    between atoms: _572  and  _573
REMARK  226  A    between atoms: _573  and  _574
REMARK  227  A    between atoms: _574  and  _575
REMARK  228  A    between atoms: _584  and  _586
REMARK  229  A    between atoms: _586  and  _587
REMARK  230  A    between atoms: _586  and  _589
REMARK  231  A    between atoms: _589  and  _590
REMARK  232  A    between atoms: _593  and  _595
REMARK  233  A    between atoms: _595  and  _596
REMARK  234  A    between atoms: _599  and  _601
REMARK  235  A    between atoms: _601  and  _602
REMARK  236  A    between atoms: _605  and  _607
REMARK  237  A    between atoms: _607  and  _608
REMARK  238  A    between atoms: _607  and  _610
REMARK  239  A    between atoms: _610  and  _611
REMARK  240  A    between atoms: _611  and  _612
REMARK                            x       y       z     vdW  Elec       q    Type
REMARK                         _______ _______ _______ _____ _____    ______ ____
ROOT
ATOM      1  CA  ARG A   1     -45.250 -69.197 -53.163  0.00  0.00    +0.145 C 
ENDROOT
BRANCH   1   2
ATOM      2  C   ARG A   1     -46.763 -68.861 -53.339  0.00  0.00    +0.238 C 
ATOM      3  N   GLU A   2     -47.326 -67.931 -52.555  0.00  0.00    -0.298 N 
ATOM      4  H   GLU A   2     -46.754 -67.454 -51.830  0.00  0.00    +0.150 HD
ATOM      5  O   ARG A   1     -47.439 -69.490 -54.160  0.00  0.00    -0.274 OA
BRANCH   3   6
ATOM      6  CA  GLU A   2     -48.741 -67.580 -52.710  0.00  0.00    +0.137 C 
BRANCH   6   7
ATOM      7  C   GLU A   2     -48.936 -66.902 -54.047  0.00  0.00    +0.227 C 
ATOM      8  O   GLU A   2     -48.042 -66.163 -54.546  0.00  0.00    -0.286 OA
ENDBRANCH   6   7
BRANCH   6   9
ATOM      9  CB  GLU A   2     -49.235 -66.628 -51.591  0.00  0.00    +0.039 C 
BRANCH   9  10
ATOM     10  CG  GLU A   2     -48.906 -67.084 -50.144  0.00  0.00    +0.116 C 
BRANCH  10  11
ATOM     11  CD  GLU A   2     -47.583 -66.525 -49.566  0.00  0.00    +0.365 C 
ATOM     12  OE2 GLU A   2     -47.538 -66.209 -48.345  0.00  0.00    -0.246 OA
ATOM     13  OE1 GLU A   2     -46.579 -66.451 -50.284  0.00  0.00    -0.246 OA
ENDBRANCH  10  11
ENDBRANCH   9  10
ENDBRANCH   6   9
ENDBRANCH   3   6
ENDBRANCH   1   2
BRANCH   1  14
ATOM     14  N   ARG A   1     -44.666 -69.652 -54.411  0.00  0.00    -0.238 NA
ATOM     15  H   ARG A   1     -44.723 -69.016 -55.232  0.00  0.00    +0.142 HD
ENDBRANCH   1  14
BRANCH   1  16
ATOM     16  CB  ARG A   1     -44.398 -68.005 -52.661  0.00  0.00    +0.030 C 
BRANCH  16  17
ATOM     17  CG  ARG A   1     -42.912 -68.431 -52.402  0.00  0.00    +0.045 C 
BRANCH  17  18
ATOM     18  CD  ARG A   1     -42.104 -67.311 -51.737  0.00  0.00    +0.174 C 
BRANCH  18  19
ATOM     19  NE  ARG A   1     -42.663 -66.997 -50.420  0.00  0.00    -0.265 N 
ATOM     20  CZ  ARG A   1     -42.236 -65.992 -49.668  0.00  0.00    +0.342 C 
ATOM     21  NH2 ARG A   1     -42.764 -65.782 -48.467  0.00  0.00    -0.292 N 
ATOM     22 HH21 ARG A   1     -42.426 -64.992 -47.881  0.00  0.00    +0.255 HD
ATOM     23 HH22 ARG A   1     -43.516 -66.407 -48.113  0.00  0.00    +0.255 HD
ATOM     24  NH1 ARG A   1     -41.237 -65.228 -50.113  0.00  0.00    -0.292 N 
ATOM     25 HH11 ARG A   1     -40.891 -64.436 -49.535  0.00  0.00    +0.255 HD
ATOM     26 HH12 ARG A   1     -40.804 -65.425 -51.038  0.00  0.00    +0.255 HD
ATOM     27  HE  ARG A   1     -43.434 -67.593 -50.056  0.00  0.00    +0.259 HD
ENDBRANCH  18  19
ENDBRANCH  17  18
ENDBRANCH  16  17
ENDBRANCH   1  16
TORSDOF 11
REMARK  Name = ../refined-set-2016/3n76/3n76_pocket.pdb
REMARK  240 active torsions:
REMARK  status: ('A' for Active; 'I' for Inactive)
REMARK    1  A    between atoms: _1  and  _3
REMARK    2  A    between atoms: _3  and  _4
REMARK    3  A    between atoms: _3  and  _6
REMARK    4  A    between atoms: _6  and  _7
REMARK    5  A    between atoms: _12  and  _14
REMARK    6  A    between atoms: _14  and  _15
REMARK    7  A    between atoms: _18  and  _19
REMARK    8  A    between atoms: _24  and  _26
REMARK    9  A    between atoms: _26  and  _27
REMARK   10  A    between atoms: _26  and  _29
REMARK   11  A    between atoms: _29  and  _30
REMARK   12  A    between atoms: _35  and  _37
REMARK   13  A    between atoms: _37  and  _38
REMARK   14  A    between atoms: _37  and  _40
REMARK   15  A    between atoms: _40  and  _41
REMARK   16  A    between atoms: _44  and  _46
REMARK   17  A    between atoms: _46  and  _47
REMARK   18  A    between atoms: _49  and  _51
REMARK   19  A    between atoms: _51  and  _52
REMARK   20  A    between atoms: _51  and  _54
REMARK   21  A    between atoms: _54  and  _55
REMARK   22  A    between atoms: _55  and  _56
REMARK   23  A    between atoms: _56  and  _57
REMARK   24  A    between atoms: _66  and  _68
REMARK   25  A    between atoms: _68  and  _69
REMARK   26  A    between atoms: _68  and  _71
REMARK   27  A    between atoms: _71  and  _72
REMARK   28  A    between atoms: _75  and  _77
REMARK   29  A    between atoms: _77  and  _78
REMARK   30  A    between atoms: _80  and  _82
REMARK   31  A    between atoms: _82  and  _83
REMARK   32  A    between atoms: _82  and  _85
REMARK   33  A    between atoms: _85  and  _86
REMARK   34  A    between atoms: _86  and  _87
REMARK   35  A    between atoms: _87  and  _88
REMARK   36  A    between atoms: _97  and  _99
REMARK   37  A    between atoms: _99  and  _100
REMARK   38  A    between atoms: _99  and  _102
REMARK   39  A    between atoms: _102  and  _103
REMARK   40  A    between atoms: _103  and  _104
REMARK   41  A    between atoms: _104  and  _105
REMARK   42  A    between atoms: _114  and  _116
REMARK   43  A    between atoms: _116  and  _117
REMARK   44  A    between atoms: _116  and  _119
REMARK   45  A    between atoms: _119  and  _120
REMARK   46  A    between atoms: _120  and  _121
REMARK   47  A    between atoms: _125  and  _126
REMARK   48  A    between atoms: _131  and  _133
REMARK   49  A    between atoms: _133  and  _134
REMARK   50  A    between atoms: _133  and  _136
REMARK   51  A    between atoms: _139  and  _141
REMARK   52  A    between atoms: _141  and  _142
REMARK   53  A    between atoms: _141  and  _144
REMARK   54  A    between atoms: _144  and  _145
REMARK   55  A    between atoms: _150  and  _151
REMARK   56  A    between atoms: _153  and  _155
REMARK   57  A    between atoms: _155  and  _156
REMARK   58  A    between atoms: _158  and  _160
REMARK   59  A    between atoms: _160  and  _161
REMARK   60  A    between atoms: _160  and  _163
REMARK   61  A    between atoms: _163  and  _164
REMARK   62  A    between atoms: _167  and  _169
REMARK   63  A    between atoms: _169  and  _170
REMARK   64  A    between atoms: _169  and  _172
REMARK   65  A    between atoms: _172  and  _173
REMARK   66  A    between atoms: _176  and  _178
REMARK   67  A    between atoms: _178  and  _179
REMARK   68  A    between atoms: _178  and  _181
REMARK   69  A    between atoms: _181  and  _182
REMARK   70  A    between atoms: _187  and  _189
REMARK   71  A    between atoms: _189  and  _190
REMARK   72  A    between atoms: _189  and  _192
REMARK   73  A    between atoms: _192  and  _193
REMARK   74  A    between atoms: _193  and  _194
REMARK   75  A    between atoms: _199  and  _201
REMARK   76  A    between atoms: _201  and  _202
REMARK   77  A    between atoms: _201  and  _204
REMARK   78  A    between atoms: _204  and  _205
REMARK   79  A    between atoms: _208  and  _210
REMARK   80  A    between atoms: _210  and  _211
REMARK   81  A    between atoms: _210  and  _213
REMARK   82  A    between atoms: _213  and  _214
REMARK   83  A    between atoms: _217  and  _219
REMARK   84  A    between atoms: _219  and  _220
REMARK   85  A    between atoms: _219  and  _222
REMARK   86  A    between atoms: _222  and  _223
REMARK   87  A    between atoms: _228  and  _230
REMARK   88  A    between atoms: _230  and  _231
REMARK   89  A    between atoms: _234  and  _236
REMARK   90  A    between atoms: _236  and  _237
REMARK   91  A    between atoms: _239  and  _241
REMARK   92  A    between atoms: _241  and  _242
REMARK   93  A    between atoms: _244  and  _246
REMARK   94  A    between atoms: _246  and  _247
REMARK   95  A    between atoms: _246  and  _249
REMARK   96  A    between atoms: _249  and  _250
REMARK   97  A    between atoms: _253  and  _255
REMARK   98  A    between atoms: _255  and  _256
REMARK   99  A    between atoms: _255  and  _258
REMARK  100  A    between atoms: _258  and  _259
REMARK  101  A    between atoms: _262  and  _264
REMARK  102  A    between atoms: _264  and  _265
REMARK  103  A    between atoms: _264  and  _267
REMARK  104  A    between atoms: _267  and  _268
REMARK  105  A    between atoms: _273  and  _275
REMARK  106  A    between atoms: _275  and  _276
REMARK  107  A    between atoms: _275  and  _278
REMARK  108  A    between atoms: _278  and  _279
REMARK  109  A    between atoms: _282  and  _284
REMARK  110  A    between atoms: _284  and  _285
REMARK  111  A    between atoms: _284  and  _287
REMARK  112  A    between atoms: _287  and  _288
REMARK  113  A    between atoms: _288  and  _289
REMARK  114  A    between atoms: _292  and  _294
REMARK  115  A    between atoms: _294  and  _295
REMARK  116  A    between atoms: _294  and  _297
REMARK  117  A    between atoms: _300  and  _302
REMARK  118  A    between atoms: _302  and  _303
REMARK  119  A    between atoms: _302  and  _305
REMARK  120  A    between atoms: _305  and  _306
REMARK  121  A    between atoms: _311  and  _313
REMARK  122  A    between atoms: _313  and  _314
REMARK  123  A    between atoms: _313  and  _316
REMARK  124  A    between atoms: _316  and  _317
REMARK  125  A    between atoms: _320  and  _322
REMARK  126  A    between atoms: _322  and  _323
REMARK  127  A    between atoms: _322  and  _325
REMARK  128  A    between atoms: _325  and  _326
REMARK  129  A    between atoms: _328  and  _330
REMARK  130  A    between atoms: _330  and  _331
REMARK  131  A    between atoms: _330  and  _333
REMARK  132  A    between atoms: _333  and  _334
REMARK  133  A    between atoms: _339  and  _341
REMARK  134  A    between atoms: _341  and  _342
REMARK  135  A    between atoms: _341  and  _344
REMARK  136  A    between atoms: _347  and  _349
REMARK  137  A    between atoms: _349  and  _350
REMARK  138  A    between atoms: _349  and  _352
REMARK  139  A    between atoms: _352  and  _353
REMARK  140  A    between atoms: _358  and  _360
REMARK  141  A    between atoms: _360  and  _361
REMARK  142  A    between atoms: _360  and  _363
REMARK  143  A    between atoms: _363  and  _364
REMARK  144  A    between atoms: _364  and  _365
REMARK  145  A    between atoms: _365  and  _366
REMARK  146  A    between atoms: _375  and  _377
REMARK  147  A    between atoms: _377  and  _378
REMARK  148  A    between atoms: _377  and  _380
REMARK  149  A    between atoms: _380  and  _381
REMARK  150  A    between atoms: _381  and  _382
REMARK  151  A    between atoms: _385  and  _387
REMARK  152  A    between atoms: _387  and  _388
REMARK  153  A    between atoms: _387  and  _390
REMARK  154  A    between atoms: _390  and  _391
REMARK  155  A    between atoms: _397  and  _399
REMARK  156  A    between atoms: _399  and  _400
REMARK  157  A    between atoms: _399  and  _402
REMARK  158  A    between atoms: _402  and  _403
REMARK  159  A    between atoms: _403  and  _404
REMARK  160  A    between atoms: _404  and  _405
REMARK  161  A    between atoms: _414  and  _416
REMARK  162  A    between atoms: _416  and  _417
REMARK  163  A    between atoms: _416  and  _419
REMARK  164  A    between atoms: _419  and  _420
REMARK  165  A    between atoms: _420  and  _421
REMARK  166  A    between atoms: _421  and  _422
REMARK  167  A    between atoms: _431  and  _433
REMARK  168  A    between atoms: _433  and  _434
REMARK  169  A    between atoms: _433  and  _436
REMARK  170  A    between atoms: _436  and  _437
REMARK  171  A    between atoms: _442  and  _444
REMARK  172  A    between atoms: _444  and  _445
REMARK  173  A    between atoms: _444  and  _447
REMARK  174  A    between atoms: _447  and  _448
REMARK  175  A    between atoms: _450  and  _452
REMARK  176  A    between atoms: _452  and  _453
REMARK  177  A    between atoms: _452  and  _455
REMARK  178  A    between atoms: _455  and  _456
REMARK  179  A    between atoms: _459  and  _461
REMARK  180  A    between atoms: _461  and  _462
REMARK  181  A    between atoms: _461  and  _464
REMARK  182  A    between atoms: _464  and  _465
REMARK  183  A    between atoms: _468  and  _470
REMARK  184  A    between atoms: _470  and  _471
REMARK  185  A    between atoms: _470  and  _473
REMARK  186  A    between atoms: _476  and  _478
REMARK  187  A    between atoms: _478  and  _479
REMARK  188  A    between atoms: _481  and  _483
REMARK  189  A    between atoms: _483  and  _484
REMARK  190  A    between atoms: _483  and  _486
REMARK  191  A    between atoms: _486  and  _487
REMARK  192  A    between atoms: _490  and  _492
REMARK  193  A    between atoms: _492  and  _493
REMARK  194  A    between atoms: _495  and  _497
REMARK  195  A    between atoms: _497  and  _498
REMARK  196  A    between atoms: _497  and  _500
REMARK  197  A    between atoms: _500  and  _501
REMARK  198  A    between atoms: _504  and  _506
REMARK  199  A    between atoms: _506  and  _507
REMARK  200  A    between atoms: _506  and  _509
REMARK  201  A    between atoms: _509  and  _510
REMARK  202  A    between atoms: _515  and  _516
REMARK  203  A    between atoms: _518  and  _520
REMARK  204  A    between atoms: _520  and  _521
REMARK  205  A    between atoms: _520  and  _523
REMARK  206  A    between atoms: _523  and  _524
REMARK  207  A    between atoms: _527  and  _529
REMARK  208  A    between atoms: _529  and  _530
REMARK  209  A    between atoms: _529  and  _532
REMARK  210  A    between atoms: _532  and  _533
REMARK  211  A    between atoms: _538  and  _540
REMARK  212  A    between atoms: _540  and  _541
REMARK  213  A    between atoms: _544  and  _546
REMARK  214  A    between atoms: _546  and  _547
REMARK  215  A    between atoms: _546  and  _549
REMARK  216  A    between atoms: _552  and  _554
REMARK  217  A    between atoms: _554  and  _555
REMARK  218  A    between atoms: _558  and  _560
REMARK  219  A    between atoms: _560  and  _561
REMARK  220  A    between atoms: _560  and  _563
REMARK  221  A    between atoms: _563  and  _564
REMARK  222  A    between atoms: _567  and  _569
REMARK  223  A    between atoms: _569  and  _570
REMARK  224  A    between atoms: _569  and  _572
REMARK  225  A    between atoms: _572  and  _573
REMARK  226  A    between atoms: _573  and  _574
REMARK  227  A    between atoms: _574  and  _575
REMARK  228  A    between atoms: _584  and  _586
REMARK  229  A    between atoms: _586  and  _587
REMARK  230  A    between atoms: _586  and  _589
REMARK  231  A    between atoms: _589  and  _590
REMARK  232  A    between atoms: _593  and  _595
REMARK  233  A    between atoms: _595  and  _596
REMARK  234  A    between atoms: _599  and  _601
REMARK  235  A    between atoms: _601  and  _602
REMARK  236  A    between atoms: _605  and  _607
REMARK  237  A    between atoms: _607  and  _608
REMARK  238  A    between atoms: _607  and  _610
REMARK  239  A    between atoms: _610  and  _611
REMARK  240  A    between atoms: _611  and  _612
REMARK                            x       y       z     vdW  Elec       q    Type
REMARK                         _______ _______ _______ _____ _____    ______ ____
ROOT
ATOM      1  CA  ARG A   3     -46.565 -63.705 -58.638  0.00  0.00    +0.149 C 
ENDROOT
BRANCH   1   4
ATOM      2  C   ARG A   2     -46.054 -62.882 -56.388  0.00  0.00    +0.241 C 
ATOM      3  O   ARG A   2     -44.929 -62.496 -56.752  0.00  0.00    -0.273 OA
ATOM      4  N   ARG A   3     -46.901 -63.504 -57.199  0.00  0.00    -0.297 N 
ATOM      5  H   ARG A   3     -47.807 -63.854 -56.828  0.00  0.00    +0.150 HD
BRANCH   2   6
ATOM      6  CA  ARG A   2     -46.447 -62.770 -54.947  0.00  0.00    +0.149 C 
BRANCH   6   8
ATOM      7  C   PHE A   1     -48.857 -62.361 -55.072  0.00  0.00    +0.239 C 
ATOM      8  N   ARG A   2     -47.859 -63.171 -54.684  0.00  0.00    -0.297 N 
ATOM      9  H   ARG A   2     -48.069 -64.070 -54.205  0.00  0.00    +0.150 HD
ATOM     10  O   PHE A   1     -48.640 -61.289 -55.601  0.00  0.00    -0.274 OA
BRANCH   7  11
ATOM     11  CA  PHE A   1     -50.312 -62.782 -54.827  0.00  0.00    +0.149 C 
BRANCH  11  12
ATOM     12  N   PHE A   1     -50.526 -64.226 -54.800  0.00  0.00    -0.238 NA
ATOM     13  H   PHE A   1     -50.892 -64.694 -53.946  0.00  0.00    +0.142 HD
ENDBRANCH  11  12
BRANCH  11  14
ATOM     14  CB  PHE A   1     -50.931 -62.040 -53.637  0.00  0.00    +0.053 C 
BRANCH  14  15
ATOM     15  CG  PHE A   1     -50.273 -62.361 -52.311  0.00  0.00    -0.020 A 
ATOM     16  CD2 PHE A   1     -50.917 -63.202 -51.413  0.00  0.00    -0.004 A 
ATOM     17  CE2 PHE A   1     -50.304 -63.533 -50.188  0.00  0.00    -0.000 A 
ATOM     18  CZ  PHE A   1     -49.046 -62.989 -49.838  0.00  0.00    -0.000 A 
ATOM     19  CE1 PHE A   1     -48.366 -62.132 -50.758  0.00  0.00    -0.000 A 
ATOM     20  CD1 PHE A   1     -48.993 -61.832 -51.989  0.00  0.00    -0.004 A 
ENDBRANCH  14  15
ENDBRANCH  11  14
ENDBRANCH   7  11
ENDBRANCH   6   8
BRANCH   6  21
ATOM     21  CB  ARG A   2     -45.415 -63.558 -54.148  0.00  0.00    +0.033 C 
BRANCH  21  22
ATOM     22  CG  ARG A   2     -45.644 -63.489 -52.665  0.00  0.00    +0.045 C 
BRANCH  22  23
ATOM     23  CD  ARG A   2     -44.470 -64.102 -51.843  0.00  0.00    +0.174 C 
BRANCH  23  24
ATOM     24  NE  ARG A   2     -45.016 -64.278 -50.497  0.00  0.00    -0.265 N 
ATOM     25  CZ  ARG A   2     -45.040 -63.318 -49.567  0.00  0.00    +0.342 C 
ATOM     26  NH2 ARG A   2     -45.577 -63.574 -48.368  0.00  0.00    -0.292 N 
ATOM     27 HH21 ARG A   2     -45.599 -62.832 -47.639  0.00  0.00    +0.255 HD
ATOM     28 HH22 ARG A   2     -45.972 -64.515 -48.165  0.00  0.00    +0.255 HD
ATOM     29  NH1 ARG A   2     -44.432 -62.155 -49.774  0.00  0.00    -0.292 N 
ATOM     30 HH11 ARG A   2     -44.459 -61.417 -49.042  0.00  0.00    +0.255 HD
ATOM     31 HH12 ARG A   2     -43.930 -61.983 -50.668  0.00  0.00    +0.255 HD
ATOM     32  HE  ARG A   2     -45.410 -65.208 -50.248  0.00  0.00    +0.259 HD
ENDBRANCH  23  24
ENDBRANCH  22  23
ENDBRANCH  21  22
ENDBRANCH   6  21
ENDBRANCH   2   6
ENDBRANCH   1   4
BRANCH   1  33
ATOM     33  C   ARG A   3     -46.805 -62.435 -59.412  0.00  0.00    +0.241 C 
ATOM     34  N   HIS A   4     -47.365 -61.392 -58.788  0.00  0.00    -0.297 N 
ATOM     35  H   HIS A   4     -47.629 -61.450 -57.784  0.00  0.00    +0.150 HD
ATOM     36  O   ARG A   3     -46.517 -62.400 -60.608  0.00  0.00    -0.273 OA
BRANCH  34  37
ATOM     37  CA  HIS A   4     -47.593 -60.186 -59.544  0.00  0.00    +0.155 C 
BRANCH  37  38
ATOM     38  C   HIS A   4     -46.705 -59.061 -59.021  0.00  0.00    +0.241 C 
ATOM     39  O   HIS A   4     -46.736 -58.779 -57.830  0.00  0.00    -0.273 OA
ATOM     40  N   SER A   5     -45.945 -58.446 -59.921  0.00  0.00    -0.296 N 
ATOM     41  H   SER A   5     -45.957 -58.788 -60.903  0.00  0.00    +0.150 HD
BRANCH  40  42
ATOM     42  CA  SER A   5     -45.084 -57.295 -59.579  0.00  0.00    +0.166 C 
BRANCH  42  43
ATOM     43  C   SER A   5     -45.508 -56.019 -60.352  0.00  0.00    +0.229 C 
ATOM     44  O   SER A   5     -45.658 -56.044 -61.583  0.00  0.00    -0.286 OA
ENDBRANCH  42  43
BRANCH  42  45
ATOM     45  CB  SER A   5     -43.585 -57.661 -59.869  0.00  0.00    +0.165 C 
BRANCH  45  46
ATOM     46  OG  SER A   5     -42.760 -56.491 -59.737  0.00  0.00    -0.380 OA
ATOM     47  H   SER A   5     -41.817 -56.731 -59.921  0.00  0.00    +0.211 HD
ENDBRANCH  45  46
ENDBRANCH  42  45
ENDBRANCH  40  42
ENDBRANCH  37  38
BRANCH  37  48
ATOM     48  CB  HIS A   4     -49.044 -59.702 -59.516  0.00  0.00    +0.076 C 
BRANCH  48  49
ATOM     49  CG  HIS A   4     -49.198 -58.317 -60.117  0.00  0.00    +0.082 A 
ATOM     50  ND1 HIS A   4     -49.679 -57.222 -59.411  0.00  0.00    -0.227 NA
ATOM     51  CE1 HIS A   4     -49.649 -56.145 -60.186  0.00  0.00    +0.199 A 
ATOM     52  NE2 HIS A   4     -49.128 -56.482 -61.359  0.00  0.00    -0.221 NA
ATOM     53  CD2 HIS A   4     -48.832 -57.831 -61.346  0.00  0.00    +0.115 A 
ENDBRANCH  48  49
ENDBRANCH  37  48
ENDBRANCH  34  37
ENDBRANCH   1  33
BRANCH   1  54
ATOM     54  CB  ARG A   3     -47.378 -64.908 -59.239  0.00  0.00    +0.033 C 
BRANCH  54  55
ATOM     55  CG  ARG A   3     -47.161 -66.180 -58.356  0.00  0.00    +0.045 C 
BRANCH  55  56
ATOM     56  CD  ARG A   3     -47.491 -67.450 -59.175  0.00  0.00    +0.174 C 
BRANCH  56  57
ATOM     57  NE  ARG A   3     -46.722 -67.538 -60.443  0.00  0.00    -0.265 N 
ATOM     58  HE  ARG A   3     -46.044 -66.781 -60.661  0.00  0.00    +0.259 HD
ATOM     59  CZ  ARG A   3     -46.855 -68.532 -61.312  0.00  0.00    +0.342 C 
ATOM     60  NH2 ARG A   3     -47.779 -69.504 -61.076  0.00  0.00    -0.292 N 
ATOM     61 HH21 ARG A   3     -48.371 -69.462 -60.222  0.00  0.00    +0.255 HD
ATOM     62 HH22 ARG A   3     -47.893 -70.288 -61.750  0.00  0.00    +0.255 HD
ATOM     63  NH1 ARG A   3     -46.102 -68.544 -62.416  0.00  0.00    -0.292 N 
ATOM     64 HH11 ARG A   3     -45.419 -67.779 -62.588  0.00  0.00    +0.255 HD
ATOM     65 HH12 ARG A   3     -46.199 -69.319 -63.103  0.00  0.00    +0.255 HD
ENDBRANCH  56  57
ENDBRANCH  55  56
ENDBRANCH  54  55
ENDBRANCH   1  54
TORSDOF 24
REMARK  Name = ../refined-set-2016/3n76/3n76_pocket.pdb
REMARK  240 active torsions:
REMARK  status: ('A' for Active; 'I' for Inactive)
REMARK    1  A    between atoms: _1  and  _3
REMARK    2  A    between atoms: _3  and  _4
REMARK    3  A    between atoms: _3  and  _6
REMARK    4  A    between atoms: _6  and  _7
REMARK    5  A    between atoms: _12  and  _14
REMARK    6  A    between atoms: _14  and  _15
REMARK    7  A    between atoms: _18  and  _19
REMARK    8  A    between atoms: _24  and  _26
REMARK    9  A    between atoms: _26  and  _27
REMARK   10  A    between atoms: _26  and  _29
REMARK   11  A    between atoms: _29  and  _30
REMARK   12  A    between atoms: _35  and  _37
REMARK   13  A    between atoms: _37  and  _38
REMARK   14  A    between atoms: _37  and  _40
REMARK   15  A    between atoms: _40  and  _41
REMARK   16  A    between atoms: _44  and  _46
REMARK   17  A    between atoms: _46  and  _47
REMARK   18  A    between atoms: _49  and  _51
REMARK   19  A    between atoms: _51  and  _52
REMARK   20  A    between atoms: _51  and  _54
REMARK   21  A    between atoms: _54  and  _55
REMARK   22  A    between atoms: _55  and  _56
REMARK   23  A    between atoms: _56  and  _57
REMARK   24  A    between atoms: _66  and  _68
REMARK   25  A    between atoms: _68  and  _69
REMARK   26  A    between atoms: _68  and  _71
REMARK   27  A    between atoms: _71  and  _72
REMARK   28  A    between atoms: _75  and  _77
REMARK   29  A    between atoms: _77  and  _78
REMARK   30  A    between atoms: _80  and  _82
REMARK   31  A    between atoms: _82  and  _83
REMARK   32  A    between atoms: _82  and  _85
REMARK   33  A    between atoms: _85  and  _86
REMARK   34  A    between atoms: _86  and  _87
REMARK   35  A    between atoms: _87  and  _88
REMARK   36  A    between atoms: _97  and  _99
REMARK   37  A    between atoms: _99  and  _100
REMARK   38  A    between atoms: _99  and  _102
REMARK   39  A    between atoms: _102  and  _103
REMARK   40  A    between atoms: _103  and  _104
REMARK   41  A    between atoms: _104  and  _105
REMARK   42  A    between atoms: _114  and  _116
REMARK   43  A    between atoms: _116  and  _117
REMARK   44  A    between atoms: _116  and  _119
REMARK   45  A    between atoms: _119  and  _120
REMARK   46  A    between atoms: _120  and  _121
REMARK   47  A    between atoms: _125  and  _126
REMARK   48  A    between atoms: _131  and  _133
REMARK   49  A    between atoms: _133  and  _134
REMARK   50  A    between atoms: _133  and  _136
REMARK   51  A    between atoms: _139  and  _141
REMARK   52  A    between atoms: _141  and  _142
REMARK   53  A    between atoms: _141  and  _144
REMARK   54  A    between atoms: _144  and  _145
REMARK   55  A    between atoms: _150  and  _151
REMARK   56  A    between atoms: _153  and  _155
REMARK   57  A    between atoms: _155  and  _156
REMARK   58  A    between atoms: _158  and  _160
REMARK   59  A    between atoms: _160  and  _161
REMARK   60  A    between atoms: _160  and  _163
REMARK   61  A    between atoms: _163  and  _164
REMARK   62  A    between atoms: _167  and  _169
REMARK   63  A    between atoms: _169  and  _170
REMARK   64  A    between atoms: _169  and  _172
REMARK   65  A    between atoms: _172  and  _173
REMARK   66  A    between atoms: _176  and  _178
REMARK   67  A    between atoms: _178  and  _179
REMARK   68  A    between atoms: _178  and  _181
REMARK   69  A    between atoms: _181  and  _182
REMARK   70  A    between atoms: _187  and  _189
REMARK   71  A    between atoms: _189  and  _190
REMARK   72  A    between atoms: _189  and  _192
REMARK   73  A    between atoms: _192  and  _193
REMARK   74  A    between atoms: _193  and  _194
REMARK   75  A    between atoms: _199  and  _201
REMARK   76  A    between atoms: _201  and  _202
REMARK   77  A    between atoms: _201  and  _204
REMARK   78  A    between atoms: _204  and  _205
REMARK   79  A    between atoms: _208  and  _210
REMARK   80  A    between atoms: _210  and  _211
REMARK   81  A    between atoms: _210  and  _213
REMARK   82  A    between atoms: _213  and  _214
REMARK   83  A    between atoms: _217  and  _219
REMARK   84  A    between atoms: _219  and  _220
REMARK   85  A    between atoms: _219  and  _222
REMARK   86  A    between atoms: _222  and  _223
REMARK   87  A    between atoms: _228  and  _230
REMARK   88  A    between atoms: _230  and  _231
REMARK   89  A    between atoms: _234  and  _236
REMARK   90  A    between atoms: _236  and  _237
REMARK   91  A    between atoms: _239  and  _241
REMARK   92  A    between atoms: _241  and  _242
REMARK   93  A    between atoms: _244  and  _246
REMARK   94  A    between atoms: _246  and  _247
REMARK   95  A    between atoms: _246  and  _249
REMARK   96  A    between atoms: _249  and  _250
REMARK   97  A    between atoms: _253  and  _255
REMARK   98  A    between atoms: _255  and  _256
REMARK   99  A    between atoms: _255  and  _258
REMARK  100  A    between atoms: _258  and  _259
REMARK  101  A    between atoms: _262  and  _264
REMARK  102  A    between atoms: _264  and  _265
REMARK  103  A    between atoms: _264  and  _267
REMARK  104  A    between atoms: _267  and  _268
REMARK  105  A    between atoms: _273  and  _275
REMARK  106  A    between atoms: _275  and  _276
REMARK  107  A    between atoms: _275  and  _278
REMARK  108  A    between atoms: _278  and  _279
REMARK  109  A    between atoms: _282  and  _284
REMARK  110  A    between atoms: _284  and  _285
REMARK  111  A    between atoms: _284  and  _287
REMARK  112  A    between atoms: _287  and  _288
REMARK  113  A    between atoms: _288  and  _289
REMARK  114  A    between atoms: _292  and  _294
REMARK  115  A    between atoms: _294  and  _295
REMARK  116  A    between atoms: _294  and  _297
REMARK  117  A    between atoms: _300  and  _302
REMARK  118  A    between atoms: _302  and  _303
REMARK  119  A    between atoms: _302  and  _305
REMARK  120  A    between atoms: _305  and  _306
REMARK  121  A    between atoms: _311  and  _313
REMARK  122  A    between atoms: _313  and  _314
REMARK  123  A    between atoms: _313  and  _316
REMARK  124  A    between atoms: _316  and  _317
REMARK  125  A    between atoms: _320  and  _322
REMARK  126  A    between atoms: _322  and  _323
REMARK  127  A    between atoms: _322  and  _325
REMARK  128  A    between atoms: _325  and  _326
REMARK  129  A    between atoms: _328  and  _330
REMARK  130  A    between atoms: _330  and  _331
REMARK  131  A    between atoms: _330  and  _333
REMARK  132  A    between atoms: _333  and  _334
REMARK  133  A    between atoms: _339  and  _341
REMARK  134  A    between atoms: _341  and  _342
REMARK  135  A    between atoms: _341  and  _344
REMARK  136  A    between atoms: _347  and  _349
REMARK  137  A    between atoms: _349  and  _350
REMARK  138  A    between atoms: _349  and  _352
REMARK  139  A    between atoms: _352  and  _353
REMARK  140  A    between atoms: _358  and  _360
REMARK  141  A    between atoms: _360  and  _361
REMARK  142  A    between atoms: _360  and  _363
REMARK  143  A    between atoms: _363  and  _364
REMARK  144  A    between atoms: _364  and  _365
REMARK  145  A    between atoms: _365  and  _366
REMARK  146  A    between atoms: _375  and  _377
REMARK  147  A    between atoms: _377  and  _378
REMARK  148  A    between atoms: _377  and  _380
REMARK  149  A    between atoms: _380  and  _381
REMARK  150  A    between atoms: _381  and  _382
REMARK  151  A    between atoms: _385  and  _387
REMARK  152  A    between atoms: _387  and  _388
REMARK  153  A    between atoms: _387  and  _390
REMARK  154  A    between atoms: _390  and  _391
REMARK  155  A    between atoms: _397  and  _399
REMARK  156  A    between atoms: _399  and  _400
REMARK  157  A    between atoms: _399  and  _402
REMARK  158  A    between atoms: _402  and  _403
REMARK  159  A    between atoms: _403  and  _404
REMARK  160  A    between atoms: _404  and  _405
REMARK  161  A    between atoms: _414  and  _416
REMARK  162  A    between atoms: _416  and  _417
REMARK  163  A    between atoms: _416  and  _419
REMARK  164  A    between atoms: _419  and  _420
REMARK  165  A    between atoms: _420  and  _421
REMARK  166  A    between atoms: _421  and  _422
REMARK  167  A    between atoms: _431  and  _433
REMARK  168  A    between atoms: _433  and  _434
REMARK  169  A    between atoms: _433  and  _436
REMARK  170  A    between atoms: _436  and  _437
REMARK  171  A    between atoms: _442  and  _444
REMARK  172  A    between atoms: _444  and  _445
REMARK  173  A    between atoms: _444  and  _447
REMARK  174  A    between atoms: _447  and  _448
REMARK  175  A    between atoms: _450  and  _452
REMARK  176  A    between atoms: _452  and  _453
REMARK  177  A    between atoms: _452  and  _455
REMARK  178  A    between atoms: _455  and  _456
REMARK  179  A    between atoms: _459  and  _461
REMARK  180  A    between atoms: _461  and  _462
REMARK  181  A    between atoms: _461  and  _464
REMARK  182  A    between atoms: _464  and  _465
REMARK  183  A    between atoms: _468  and  _470
REMARK  184  A    between atoms: _470  and  _471
REMARK  185  A    between atoms: _470  and  _473
REMARK  186  A    between atoms: _476  and  _478
REMARK  187  A    between atoms: _478  and  _479
REMARK  188  A    between atoms: _481  and  _483
REMARK  189  A    between atoms: _483  and  _484
REMARK  190  A    between atoms: _483  and  _486
REMARK  191  A    between atoms: _486  and  _487
REMARK  192  A    between atoms: _490  and  _492
REMARK  193  A    between atoms: _492  and  _493
REMARK  194  A    between atoms: _495  and  _497
REMARK  195  A    between atoms: _497  and  _498
REMARK  196  A    between atoms: _497  and  _500
REMARK  197  A    between atoms: _500  and  _501
REMARK  198  A    between atoms: _504  and  _506
REMARK  199  A    between atoms: _506  and  _507
REMARK  200  A    between atoms: _506  and  _509
REMARK  201  A    between atoms: _509  and  _510
REMARK  202  A    between atoms: _515  and  _516
REMARK  203  A    between atoms: _518  and  _520
REMARK  204  A    between atoms: _520  and  _521
REMARK  205  A    between atoms: _520  and  _523
REMARK  206  A    between atoms: _523  and  _524
REMARK  207  A    between atoms: _527  and  _529
REMARK  208  A    between atoms: _529  and  _530
REMARK  209  A    between atoms: _529  and  _532
REMARK  210  A    between atoms: _532  and  _533
REMARK  211  A    between atoms: _538  and  _540
REMARK  212  A    between atoms: _540  and  _541
REMARK  213  A    between atoms: _544  and  _546
REMARK  214  A    between atoms: _546  and  _547
REMARK  215  A    between atoms: _546  and  _549
REMARK  216  A    between atoms: _552  and  _554
REMARK  217  A    between atoms: _554  and  _555
REMARK  218  A    between atoms: _558  and  _560
REMARK  219  A    between atoms: _560  and  _561
REMARK  220  A    between atoms: _560  and  _563
REMARK  221  A    between atoms: _563  and  _564
REMARK  222  A    between atoms: _567  and  _569
REMARK  223  A    between atoms: _569  and  _570
REMARK  224  A    between atoms: _569  and  _572
REMARK  225  A    between atoms: _572  and  _573
REMARK  226  A    between atoms: _573  and  _574
REMARK  227  A    between atoms: _574  and  _575
REMARK  228  A    between atoms: _584  and  _586
REMARK  229  A    between atoms: _586  and  _587
REMARK  230  A    between atoms: _586  and  _589
REMARK  231  A    between atoms: _589  and  _590
REMARK  232  A    between atoms: _593  and  _595
REMARK  233  A    between atoms: _595  and  _596
REMARK  234  A    between atoms: _599  and  _601
REMARK  235  A    between atoms: _601  and  _602
REMARK  236  A    between atoms: _605  and  _607
REMARK  237  A    between atoms: _607  and  _608
REMARK  238  A    between atoms: _607  and  _610
REMARK  239  A    between atoms: _610  and  _611
REMARK  240  A    between atoms: _611  and  _612
REMARK                            x       y       z     vdW  Elec       q    Type
REMARK                         _______ _______ _______ _____ _____    ______ ____
ROOT
ATOM      1  CA  LEU A   1     -42.150 -53.238 -60.894  0.00  0.00    +0.133 C 
ENDROOT
BRANCH   1   2
ATOM      2  N   LEU A   1     -43.468 -53.717 -60.428  0.00  0.00    -0.239 NA
ATOM      3  H   LEU A   1     -43.537 -54.513 -59.762  0.00  0.00    +0.142 HD
ENDBRANCH   1   2
BRANCH   1   4
ATOM      4  C   LEU A   1     -41.665 -53.884 -62.208  0.00  0.00    +0.224 C 
ATOM      5  O   LEU A   1     -41.088 -53.220 -63.044  0.00  0.00    -0.287 OA
ENDBRANCH   1   4
BRANCH   1   6
ATOM      6  CB  LEU A   1     -41.091 -53.386 -59.803  0.00  0.00    +0.025 C 
BRANCH   6   7
ATOM      7  CG  LEU A   1     -41.349 -52.692 -58.430  0.00  0.00    +0.002 C 
ATOM      8  CD2 LEU A   1     -40.292 -53.220 -57.364  0.00  0.00    +0.000 C 
ATOM      9  CD1 LEU A   1     -41.260 -51.169 -58.587  0.00  0.00    +0.000 C 
ENDBRANCH   6   7
ENDBRANCH   1   6
TORSDOF 4
REMARK  Name = ../refined-set-2016/3n76/3n76_pocket.pdb
REMARK  240 active torsions:
REMARK  status: ('A' for Active; 'I' for Inactive)
REMARK    1  A    between atoms: _1  and  _3
REMARK    2  A    between atoms: _3  and  _4
REMARK    3  A    between atoms: _3  and  _6
REMARK    4  A    between atoms: _6  and  _7
REMARK    5  A    between atoms: _12  and  _14
REMARK    6  A    between atoms: _14  and  _15
REMARK    7  A    between atoms: _18  and  _19
REMARK    8  A    between atoms: _24  and  _26
REMARK    9  A    between atoms: _26  and  _27
REMARK   10  A    between atoms: _26  and  _29
REMARK   11  A    between atoms: _29  and  _30
REMARK   12  A    between atoms: _35  and  _37
REMARK   13  A    between atoms: _37  and  _38
REMARK   14  A    between atoms: _37  and  _40
REMARK   15  A    between atoms: _40  and  _41
REMARK   16  A    between atoms: _44  and  _46
REMARK   17  A    between atoms: _46  and  _47
REMARK   18  A    between atoms: _49  and  _51
REMARK   19  A    between atoms: _51  and  _52
REMARK   20  A    between atoms: _51  and  _54
REMARK   21  A    between atoms: _54  and  _55
REMARK   22  A    between atoms: _55  and  _56
REMARK   23  A    between atoms: _56  and  _57
REMARK   24  A    between atoms: _66  and  _68
REMARK   25  A    between atoms: _68  and  _69
REMARK   26  A    between atoms: _68  and  _71
REMARK   27  A    between atoms: _71  and  _72
REMARK   28  A    between atoms: _75  and  _77
REMARK   29  A    between atoms: _77  and  _78
REMARK   30  A    between atoms: _80  and  _82
REMARK   31  A    between atoms: _82  and  _83
REMARK   32  A    between atoms: _82  and  _85
REMARK   33  A    between atoms: _85  and  _86
REMARK   34  A    between atoms: _86  and  _87
REMARK   35  A    between atoms: _87  and  _88
REMARK   36  A    between atoms: _97  and  _99
REMARK   37  A    between atoms: _99  and  _100
REMARK   38  A    between atoms: _99  and  _102
REMARK   39  A    between atoms: _102  and  _103
REMARK   40  A    between atoms: _103  and  _104
REMARK   41  A    between atoms: _104  and  _105
REMARK   42  A    between atoms: _114  and  _116
REMARK   43  A    between atoms: _116  and  _117
REMARK   44  A    between atoms: _116  and  _119
REMARK   45  A    between atoms: _119  and  _120
REMARK   46  A    between atoms: _120  and  _121
REMARK   47  A    between atoms: _125  and  _126
REMARK   48  A    between atoms: _131  and  _133
REMARK   49  A    between atoms: _133  and  _134
REMARK   50  A    between atoms: _133  and  _136
REMARK   51  A    between atoms: _139  and  _141
REMARK   52  A    between atoms: _141  and  _142
REMARK   53  A    between atoms: _141  and  _144
REMARK   54  A    between atoms: _144  and  _145
REMARK   55  A    between atoms: _150  and  _151
REMARK   56  A    between atoms: _153  and  _155
REMARK   57  A    between atoms: _155  and  _156
REMARK   58  A    between atoms: _158  and  _160
REMARK   59  A    between atoms: _160  and  _161
REMARK   60  A    between atoms: _160  and  _163
REMARK   61  A    between atoms: _163  and  _164
REMARK   62  A    between atoms: _167  and  _169
REMARK   63  A    between atoms: _169  and  _170
REMARK   64  A    between atoms: _169  and  _172
REMARK   65  A    between atoms: _172  and  _173
REMARK   66  A    between atoms: _176  and  _178
REMARK   67  A    between atoms: _178  and  _179
REMARK   68  A    between atoms: _178  and  _181
REMARK   69  A    between atoms: _181  and  _182
REMARK   70  A    between atoms: _187  and  _189
REMARK   71  A    between atoms: _189  and  _190
REMARK   72  A    between atoms: _189  and  _192
REMARK   73  A    between atoms: _192  and  _193
REMARK   74  A    between atoms: _193  and  _194
REMARK   75  A    between atoms: _199  and  _201
REMARK   76  A    between atoms: _201  and  _202
REMARK   77  A    between atoms: _201  and  _204
REMARK   78  A    between atoms: _204  and  _205
REMARK   79  A    between atoms: _208  and  _210
REMARK   80  A    between atoms: _210  and  _211
REMARK   81  A    between atoms: _210  and  _213
REMARK   82  A    between atoms: _213  and  _214
REMARK   83  A    between atoms: _217  and  _219
REMARK   84  A    between atoms: _219  and  _220
REMARK   85  A    between atoms: _219  and  _222
REMARK   86  A    between atoms: _222  and  _223
REMARK   87  A    between atoms: _228  and  _230
REMARK   88  A    between atoms: _230  and  _231
REMARK   89  A    between atoms: _234  and  _236
REMARK   90  A    between atoms: _236  and  _237
REMARK   91  A    between atoms: _239  and  _241
REMARK   92  A    between atoms: _241  and  _242
REMARK   93  A    between atoms: _244  and  _246
REMARK   94  A    between atoms: _246  and  _247
REMARK   95  A    between atoms: _246  and  _249
REMARK   96  A    between atoms: _249  and  _250
REMARK   97  A    between atoms: _253  and  _255
REMARK   98  A    between atoms: _255  and  _256
REMARK   99  A    between atoms: _255  and  _258
REMARK  100  A    between atoms: _258  and  _259
REMARK  101  A    between atoms: _262  and  _264
REMARK  102  A    between atoms: _264  and  _265
REMARK  103  A    between atoms: _264  and  _267
REMARK  104  A    between atoms: _267  and  _268
REMARK  105  A    between atoms: _273  and  _275
REMARK  106  A    between atoms: _275  and  _276
REMARK  107  A    between atoms: _275  and  _278
REMARK  108  A    between atoms: _278  and  _279
REMARK  109  A    between atoms: _282  and  _284
REMARK  110  A    between atoms: _284  and  _285
REMARK  111  A    between atoms: _284  and  _287
REMARK  112  A    between atoms: _287  and  _288
REMARK  113  A    between atoms: _288  and  _289
REMARK  114  A    between atoms: _292  and  _294
REMARK  115  A    between atoms: _294  and  _295
REMARK  116  A    between atoms: _294  and  _297
REMARK  117  A    between atoms: _300  and  _302
REMARK  118  A    between atoms: _302  and  _303
REMARK  119  A    between atoms: _302  and  _305
REMARK  120  A    between atoms: _305  and  _306
REMARK  121  A    between atoms: _311  and  _313
REMARK  122  A    between atoms: _313  and  _314
REMARK  123  A    between atoms: _313  and  _316
REMARK  124  A    between atoms: _316  and  _317
REMARK  125  A    between atoms: _320  and  _322
REMARK  126  A    between atoms: _322  and  _323
REMARK  127  A    between atoms: _322  and  _325
REMARK  128  A    between atoms: _325  and  _326
REMARK  129  A    between atoms: _328  and  _330
REMARK  130  A    between atoms: _330  and  _331
REMARK  131  A    between atoms: _330  and  _333
REMARK  132  A    between atoms: _333  and  _334
REMARK  133  A    between atoms: _339  and  _341
REMARK  134  A    between atoms: _341  and  _342
REMARK  135  A    between atoms: _341  and  _344
REMARK  136  A    between atoms: _347  and  _349
REMARK  137  A    between atoms: _349  and  _350
REMARK  138  A    between atoms: _349  and  _352
REMARK  139  A    between atoms: _352  and  _353
REMARK  140  A    between atoms: _358  and  _360
REMARK  141  A    between atoms: _360  and  _361
REMARK  142  A    between atoms: _360  and  _363
REMARK  143  A    between atoms: _363  and  _364
REMARK  144  A    between atoms: _364  and  _365
REMARK  145  A    between atoms: _365  and  _366
REMARK  146  A    between atoms: _375  and  _377
REMARK  147  A    between atoms: _377  and  _378
REMARK  148  A    between atoms: _377  and  _380
REMARK  149  A    between atoms: _380  and  _381
REMARK  150  A    between atoms: _381  and  _382
REMARK  151  A    between atoms: _385  and  _387
REMARK  152  A    between atoms: _387  and  _388
REMARK  153  A    between atoms: _387  and  _390
REMARK  154  A    between atoms: _390  and  _391
REMARK  155  A    between atoms: _397  and  _399
REMARK  156  A    between atoms: _399  and  _400
REMARK  157  A    between atoms: _399  and  _402
REMARK  158  A    between atoms: _402  and  _403
REMARK  159  A    between atoms: _403  and  _404
REMARK  160  A    between atoms: _404  and  _405
REMARK  161  A    between atoms: _414  and  _416
REMARK  162  A    between atoms: _416  and  _417
REMARK  163  A    between atoms: _416  and  _419
REMARK  164  A    between atoms: _419  and  _420
REMARK  165  A    between atoms: _420  and  _421
REMARK  166  A    between atoms: _421  and  _422
REMARK  167  A    between atoms: _431  and  _433
REMARK  168  A    between atoms: _433  and  _434
REMARK  169  A    between atoms: _433  and  _436
REMARK  170  A    between atoms: _436  and  _437
REMARK  171  A    between atoms: _442  and  _444
REMARK  172  A    between atoms: _444  and  _445
REMARK  173  A    between atoms: _444  and  _447
REMARK  174  A    between atoms: _447  and  _448
REMARK  175  A    between atoms: _450  and  _452
REMARK  176  A    between atoms: _452  and  _453
REMARK  177  A    between atoms: _452  and  _455
REMARK  178  A    between atoms: _455  and  _456
REMARK  179  A    between atoms: _459  and  _461
REMARK  180  A    between atoms: _461  and  _462
REMARK  181  A    between atoms: _461  and  _464
REMARK  182  A    between atoms: _464  and  _465
REMARK  183  A    between atoms: _468  and  _470
REMARK  184  A    between atoms: _470  and  _471
REMARK  185  A    between atoms: _470  and  _473
REMARK  186  A    between atoms: _476  and  _478
REMARK  187  A    between atoms: _478  and  _479
REMARK  188  A    between atoms: _481  and  _483
REMARK  189  A    between atoms: _483  and  _484
REMARK  190  A    between atoms: _483  and  _486
REMARK  191  A    between atoms: _486  and  _487
REMARK  192  A    between atoms: _490  and  _492
REMARK  193  A    between atoms: _492  and  _493
REMARK  194  A    between atoms: _495  and  _497
REMARK  195  A    between atoms: _497  and  _498
REMARK  196  A    between atoms: _497  and  _500
REMARK  197  A    between atoms: _500  and  _501
REMARK  198  A    between atoms: _504  and  _506
REMARK  199  A    between atoms: _506  and  _507
REMARK  200  A    between atoms: _506  and  _509
REMARK  201  A    between atoms: _509  and  _510
REMARK  202  A    between atoms: _515  and  _516
REMARK  203  A    between atoms: _518  and  _520
REMARK  204  A    between atoms: _520  and  _521
REMARK  205  A    between atoms: _520  and  _523
REMARK  206  A    between atoms: _523  and  _524
REMARK  207  A    between atoms: _527  and  _529
REMARK  208  A    between atoms: _529  and  _530
REMARK  209  A    between atoms: _529  and  _532
REMARK  210  A    between atoms: _532  and  _533
REMARK  211  A    between atoms: _538  and  _540
REMARK  212  A    between atoms: _540  and  _541
REMARK  213  A    between atoms: _544  and  _546
REMARK  214  A    between atoms: _546  and  _547
REMARK  215  A    between atoms: _546  and  _549
REMARK  216  A    between atoms: _552  and  _554
REMARK  217  A    between atoms: _554  and  _555
REMARK  218  A    between atoms: _558  and  _560
REMARK  219  A    between atoms: _560  and  _561
REMARK  220  A    between atoms: _560  and  _563
REMARK  221  A    between atoms: _563  and  _564
REMARK  222  A    between atoms: _567  and  _569
REMARK  223  A    between atoms: _569  and  _570
REMARK  224  A    between atoms: _569  and  _572
REMARK  225  A    between atoms: _572  and  _573
REMARK  226  A    between atoms: _573  and  _574
REMARK  227  A    between atoms: _574  and  _575
REMARK  228  A    between atoms: _584  and  _586
REMARK  229  A    between atoms: _586  and  _587
REMARK  230  A    between atoms: _586  and  _589
REMARK  231  A    between atoms: _589  and  _590
REMARK  232  A    between atoms: _593  and  _595
REMARK  233  A    between atoms: _595  and  _596
REMARK  234  A    between atoms: _599  and  _601
REMARK  235  A    between atoms: _601  and  _602
REMARK  236  A    between atoms: _605  and  _607
REMARK  237  A    between atoms: _607  and  _608
REMARK  238  A    between atoms: _607  and  _610
REMARK  239  A    between atoms: _610  and  _611
REMARK  240  A    between atoms: _611  and  _612
REMARK                            x       y       z     vdW  Elec       q    Type
REMARK                         _______ _______ _______ _____ _____    ______ ____
ROOT
ATOM      1  C   GLY A   3     -33.640 -67.705 -56.655  0.00  0.00    +0.243 C 
ATOM      2  O   GLY A   3     -33.340 -68.921 -56.408  0.00  0.00    -0.273 OA
ATOM      3  N   LEU A   4     -32.709 -66.795 -56.957  0.00  0.00    -0.297 N 
ATOM      4  H   LEU A   4     -32.958 -65.801 -57.136  0.00  0.00    +0.150 HD
ENDROOT
BRANCH   3   5
ATOM      5  CA  LEU A   4     -31.340 -67.256 -57.024  0.00  0.00    +0.149 C 
BRANCH   5   6
ATOM      6  C   LEU A   4     -30.606 -66.850 -55.746  0.00  0.00    +0.241 C 
ATOM      7  N   GLY A   5     -31.379 -66.570 -54.708  0.00  0.00    -0.295 N 
ATOM      8  H   GLY A   5     -32.404 -66.709 -54.813  0.00  0.00    +0.150 HD
ATOM      9  O   LEU A   4     -29.399 -66.837 -55.725  0.00  0.00    -0.273 OA
BRANCH   7  10
ATOM     10  CA  GLY A   5     -30.878 -66.072 -53.410  0.00  0.00    +0.176 C 
BRANCH  10  11
ATOM     11  C   GLY A   5     -30.145 -64.765 -53.549  0.00  0.00    +0.243 C 
ATOM     12  N   ILE A   6     -29.148 -64.606 -52.663  0.00  0.00    -0.298 N 
ATOM     13  H   ILE A   6     -28.974 -65.359 -51.967  0.00  0.00    +0.150 HD
ATOM     14  O   GLY A   5     -30.398 -63.949 -54.431  0.00  0.00    -0.273 OA
BRANCH  12  15
ATOM     15  CA  ILE A   6     -28.302 -63.424 -52.637  0.00  0.00    +0.137 C 
BRANCH  15  16
ATOM     16  C   ILE A   6     -27.427 -63.250 -53.866  0.00  0.00    +0.227 C 
ATOM     17  O   ILE A   6     -27.114 -62.106 -54.260  0.00  0.00    -0.286 OA
ENDBRANCH  15  16
BRANCH  15  18
ATOM     18  CB  ILE A   6     -27.517 -63.436 -51.256  0.00  0.00    +0.026 C 
ATOM     19  CG2 ILE A   6     -26.029 -63.958 -51.280  0.00  0.00    +0.002 C 
BRANCH  18  20
ATOM     20  CG1 ILE A   6     -28.071 -62.353 -50.365  0.00  0.00    +0.002 C 
ATOM     21  CD1 ILE A   6     -29.425 -62.777 -49.843  0.00  0.00    +0.000 C 
ENDBRANCH  18  20
ENDBRANCH  15  18
ENDBRANCH  12  15
ENDBRANCH  10  11
ENDBRANCH   7  10
ENDBRANCH   5   6
BRANCH   5  22
ATOM     22  CB  LEU A   4     -30.633 -66.646 -58.281  0.00  0.00    +0.029 C 
BRANCH  22  23
ATOM     23  CG  LEU A   4     -31.218 -67.100 -59.626  0.00  0.00    +0.002 C 
ATOM     24  CD2 LEU A   4     -31.384 -68.603 -59.652  0.00  0.00    +0.000 C 
ATOM     25  CD1 LEU A   4     -30.286 -66.626 -60.897  0.00  0.00    +0.000 C 
ENDBRANCH  22  23
ENDBRANCH   5  22
ENDBRANCH   3   5
BRANCH   1  26
ATOM     26  CA  GLY A   3     -35.068 -67.216 -56.647  0.00  0.00    +0.176 C 
BRANCH  26  28
ATOM     27  C   VAL A   2     -35.357 -65.626 -58.512  0.00  0.00    +0.241 C 
ATOM     28  N   GLY A   3     -35.269 -65.872 -57.188  0.00  0.00    -0.295 N 
ATOM     29  H   GLY A   3     -35.347 -65.074 -56.526  0.00  0.00    +0.150 HD
ATOM     30  O   VAL A   2     -35.056 -66.449 -59.383  0.00  0.00    -0.273 OA
BRANCH  27  31
ATOM     31  CA  VAL A   2     -35.813 -64.225 -58.877  0.00  0.00    +0.148 C 
BRANCH  31  34
ATOM     32  C   ILE A   1     -34.605 -62.461 -60.002  0.00  0.00    +0.238 C 
ATOM     33  O   ILE A   1     -34.676 -61.708 -58.996  0.00  0.00    -0.274 OA
ATOM     34  N   VAL A   2     -35.134 -63.675 -60.053  0.00  0.00    -0.297 N 
ATOM     35  H   VAL A   2     -35.067 -64.236 -60.926  0.00  0.00    +0.150 HD
BRANCH  32  36
ATOM     36  CA  ILE A   1     -33.974 -61.967 -61.266  0.00  0.00    +0.145 C 
BRANCH  36  37
ATOM     37  N   ILE A   1     -34.622 -60.718 -61.640  0.00  0.00    -0.238 NA
ATOM     38  H   ILE A   1     -34.753 -59.959 -60.941  0.00  0.00    +0.142 HD
ENDBRANCH  36  37
BRANCH  36  39
ATOM     39  CB  ILE A   1     -32.436 -61.775 -60.973  0.00  0.00    +0.025 C 
ATOM     40  CG2 ILE A   1     -31.800 -63.072 -60.432  0.00  0.00    +0.002 C 
BRANCH  39  41
ATOM     41  CG1 ILE A   1     -31.675 -61.341 -62.222  0.00  0.00    +0.002 C 
ATOM     42  CD1 ILE A   1     -30.212 -60.950 -61.893  0.00  0.00    +0.000 C 
ENDBRANCH  39  41
ENDBRANCH  36  39
ENDBRANCH  32  36
ENDBRANCH  31  34
BRANCH  31  43
ATOM     43  CB  VAL A   2     -37.428 -64.051 -58.872  0.00  0.00    +0.027 C 
ATOM     44  CG2 VAL A   2     -38.165 -65.241 -59.444  0.00  0.00    +0.002 C 
ATOM     45  CG1 VAL A   2     -37.869 -62.856 -59.582  0.00  0.00    +0.002 C 
ENDBRANCH  31  43
ENDBRANCH  27  31
ENDBRANCH  26  28
ENDBRANCH   1  26
TORSDOF 19
REMARK  Name = ../refined-set-2016/3n76/3n76_pocket.pdb
REMARK  240 active torsions:
REMARK  status: ('A' for Active; 'I' for Inactive)
REMARK    1  A    between atoms: _1  and  _3
REMARK    2  A    between atoms: _3  and  _4
REMARK    3  A    between atoms: _3  and  _6
REMARK    4  A    between atoms: _6  and  _7
REMARK    5  A    between atoms: _12  and  _14
REMARK    6  A    between atoms: _14  and  _15
REMARK    7  A    between atoms: _18  and  _19
REMARK    8  A    between atoms: _24  and  _26
REMARK    9  A    between atoms: _26  and  _27
REMARK   10  A    between atoms: _26  and  _29
REMARK   11  A    between atoms: _29  and  _30
REMARK   12  A    between atoms: _35  and  _37
REMARK   13  A    between atoms: _37  and  _38
REMARK   14  A    between atoms: _37  and  _40
REMARK   15  A    between atoms: _40  and  _41
REMARK   16  A    between atoms: _44  and  _46
REMARK   17  A    between atoms: _46  and  _47
REMARK   18  A    between atoms: _49  and  _51
REMARK   19  A    between atoms: _51  and  _52
REMARK   20  A    between atoms: _51  and  _54
REMARK   21  A    between atoms: _54  and  _55
REMARK   22  A    between atoms: _55  and  _56
REMARK   23  A    between atoms: _56  and  _57
REMARK   24  A    between atoms: _66  and  _68
REMARK   25  A    between atoms: _68  and  _69
REMARK   26  A    between atoms: _68  and  _71
REMARK   27  A    between atoms: _71  and  _72
REMARK   28  A    between atoms: _75  and  _77
REMARK   29  A    between atoms: _77  and  _78
REMARK   30  A    between atoms: _80  and  _82
REMARK   31  A    between atoms: _82  and  _83
REMARK   32  A    between atoms: _82  and  _85
REMARK   33  A    between atoms: _85  and  _86
REMARK   34  A    between atoms: _86  and  _87
REMARK   35  A    between atoms: _87  and  _88
REMARK   36  A    between atoms: _97  and  _99
REMARK   37  A    between atoms: _99  and  _100
REMARK   38  A    between atoms: _99  and  _102
REMARK   39  A    between atoms: _102  and  _103
REMARK   40  A    between atoms: _103  and  _104
REMARK   41  A    between atoms: _104  and  _105
REMARK   42  A    between atoms: _114  and  _116
REMARK   43  A    between atoms: _116  and  _117
REMARK   44  A    between atoms: _116  and  _119
REMARK   45  A    between atoms: _119  and  _120
REMARK   46  A    between atoms: _120  and  _121
REMARK   47  A    between atoms: _125  and  _126
REMARK   48  A    between atoms: _131  and  _133
REMARK   49  A    between atoms: _133  and  _134
REMARK   50  A    between atoms: _133  and  _136
REMARK   51  A    between atoms: _139  and  _141
REMARK   52  A    between atoms: _141  and  _142
REMARK   53  A    between atoms: _141  and  _144
REMARK   54  A    between atoms: _144  and  _145
REMARK   55  A    between atoms: _150  and  _151
REMARK   56  A    between atoms: _153  and  _155
REMARK   57  A    between atoms: _155  and  _156
REMARK   58  A    between atoms: _158  and  _160
REMARK   59  A    between atoms: _160  and  _161
REMARK   60  A    between atoms: _160  and  _163
REMARK   61  A    between atoms: _163  and  _164
REMARK   62  A    between atoms: _167  and  _169
REMARK   63  A    between atoms: _169  and  _170
REMARK   64  A    between atoms: _169  and  _172
REMARK   65  A    between atoms: _172  and  _173
REMARK   66  A    between atoms: _176  and  _178
REMARK   67  A    between atoms: _178  and  _179
REMARK   68  A    between atoms: _178  and  _181
REMARK   69  A    between atoms: _181  and  _182
REMARK   70  A    between atoms: _187  and  _189
REMARK   71  A    between atoms: _189  and  _190
REMARK   72  A    between atoms: _189  and  _192
REMARK   73  A    between atoms: _192  and  _193
REMARK   74  A    between atoms: _193  and  _194
REMARK   75  A    between atoms: _199  and  _201
REMARK   76  A    between atoms: _201  and  _202
REMARK   77  A    between atoms: _201  and  _204
REMARK   78  A    between atoms: _204  and  _205
REMARK   79  A    between atoms: _208  and  _210
REMARK   80  A    between atoms: _210  and  _211
REMARK   81  A    between atoms: _210  and  _213
REMARK   82  A    between atoms: _213  and  _214
REMARK   83  A    between atoms: _217  and  _219
REMARK   84  A    between atoms: _219  and  _220
REMARK   85  A    between atoms: _219  and  _222
REMARK   86  A    between atoms: _222  and  _223
REMARK   87  A    between atoms: _228  and  _230
REMARK   88  A    between atoms: _230  and  _231
REMARK   89  A    between atoms: _234  and  _236
REMARK   90  A    between atoms: _236  and  _237
REMARK   91  A    between atoms: _239  and  _241
REMARK   92  A    between atoms: _241  and  _242
REMARK   93  A    between atoms: _244  and  _246
REMARK   94  A    between atoms: _246  and  _247
REMARK   95  A    between atoms: _246  and  _249
REMARK   96  A    between atoms: _249  and  _250
REMARK   97  A    between atoms: _253  and  _255
REMARK   98  A    between atoms: _255  and  _256
REMARK   99  A    between atoms: _255  and  _258
REMARK  100  A    between atoms: _258  and  _259
REMARK  101  A    between atoms: _262  and  _264
REMARK  102  A    between atoms: _264  and  _265
REMARK  103  A    between atoms: _264  and  _267
REMARK  104  A    between atoms: _267  and  _268
REMARK  105  A    between atoms: _273  and  _275
REMARK  106  A    between atoms: _275  and  _276
REMARK  107  A    between atoms: _275  and  _278
REMARK  108  A    between atoms: _278  and  _279
REMARK  109  A    between atoms: _282  and  _284
REMARK  110  A    between atoms: _284  and  _285
REMARK  111  A    between atoms: _284  and  _287
REMARK  112  A    between atoms: _287  and  _288
REMARK  113  A    between atoms: _288  and  _289
REMARK  114  A    between atoms: _292  and  _294
REMARK  115  A    between atoms: _294  and  _295
REMARK  116  A    between atoms: _294  and  _297
REMARK  117  A    between atoms: _300  and  _302
REMARK  118  A    between atoms: _302  and  _303
REMARK  119  A    between atoms: _302  and  _305
REMARK  120  A    between atoms: _305  and  _306
REMARK  121  A    between atoms: _311  and  _313
REMARK  122  A    between atoms: _313  and  _314
REMARK  123  A    between atoms: _313  and  _316
REMARK  124  A    between atoms: _316  and  _317
REMARK  125  A    between atoms: _320  and  _322
REMARK  126  A    between atoms: _322  and  _323
REMARK  127  A    between atoms: _322  and  _325
REMARK  128  A    between atoms: _325  and  _326
REMARK  129  A    between atoms: _328  and  _330
REMARK  130  A    between atoms: _330  and  _331
REMARK  131  A    between atoms: _330  and  _333
REMARK  132  A    between atoms: _333  and  _334
REMARK  133  A    between atoms: _339  and  _341
REMARK  134  A    between atoms: _341  and  _342
REMARK  135  A    between atoms: _341  and  _344
REMARK  136  A    between atoms: _347  and  _349
REMARK  137  A    between atoms: _349  and  _350
REMARK  138  A    between atoms: _349  and  _352
REMARK  139  A    between atoms: _352  and  _353
REMARK  140  A    between atoms: _358  and  _360
REMARK  141  A    between atoms: _360  and  _361
REMARK  142  A    between atoms: _360  and  _363
REMARK  143  A    between atoms: _363  and  _364
REMARK  144  A    between atoms: _364  and  _365
REMARK  145  A    between atoms: _365  and  _366
REMARK  146  A    between atoms: _375  and  _377
REMARK  147  A    between atoms: _377  and  _378
REMARK  148  A    between atoms: _377  and  _380
REMARK  149  A    between atoms: _380  and  _381
REMARK  150  A    between atoms: _381  and  _382
REMARK  151  A    between atoms: _385  and  _387
REMARK  152  A    between atoms: _387  and  _388
REMARK  153  A    between atoms: _387  and  _390
REMARK  154  A    between atoms: _390  and  _391
REMARK  155  A    between atoms: _397  and  _399
REMARK  156  A    between atoms: _399  and  _400
REMARK  157  A    between atoms: _399  and  _402
REMARK  158  A    between atoms: _402  and  _403
REMARK  159  A    between atoms: _403  and  _404
REMARK  160  A    between atoms: _404  and  _405
REMARK  161  A    between atoms: _414  and  _416
REMARK  162  A    between atoms: _416  and  _417
REMARK  163  A    between atoms: _416  and  _419
REMARK  164  A    between atoms: _419  and  _420
REMARK  165  A    between atoms: _420  and  _421
REMARK  166  A    between atoms: _421  and  _422
REMARK  167  A    between atoms: _431  and  _433
REMARK  168  A    between atoms: _433  and  _434
REMARK  169  A    between atoms: _433  and  _436
REMARK  170  A    between atoms: _436  and  _437
REMARK  171  A    between atoms: _442  and  _444
REMARK  172  A    between atoms: _444  and  _445
REMARK  173  A    between atoms: _444  and  _447
REMARK  174  A    between atoms: _447  and  _448
REMARK  175  A    between atoms: _450  and  _452
REMARK  176  A    between atoms: _452  and  _453
REMARK  177  A    between atoms: _452  and  _455
REMARK  178  A    between atoms: _455  and  _456
REMARK  179  A    between atoms: _459  and  _461
REMARK  180  A    between atoms: _461  and  _462
REMARK  181  A    between atoms: _461  and  _464
REMARK  182  A    between atoms: _464  and  _465
REMARK  183  A    between atoms: _468  and  _470
REMARK  184  A    between atoms: _470  and  _471
REMARK  185  A    between atoms: _470  and  _473
REMARK  186  A    between atoms: _476  and  _478
REMARK  187  A    between atoms: _478  and  _479
REMARK  188  A    between atoms: _481  and  _483
REMARK  189  A    between atoms: _483  and  _484
REMARK  190  A    between atoms: _483  and  _486
REMARK  191  A    between atoms: _486  and  _487
REMARK  192  A    between atoms: _490  and  _492
REMARK  193  A    between atoms: _492  and  _493
REMARK  194  A    between atoms: _495  and  _497
REMARK  195  A    between atoms: _497  and  _498
REMARK  196  A    between atoms: _497  and  _500
REMARK  197  A    between atoms: _500  and  _501
REMARK  198  A    between atoms: _504  and  _506
REMARK  199  A    between atoms: _506  and  _507
REMARK  200  A    between atoms: _506  and  _509
REMARK  201  A    between atoms: _509  and  _510
REMARK  202  A    between atoms: _515  and  _516
REMARK  203  A    between atoms: _518  and  _520
REMARK  204  A    between atoms: _520  and  _521
REMARK  205  A    between atoms: _520  and  _523
REMARK  206  A    between atoms: _523  and  _524
REMARK  207  A    between atoms: _527  and  _529
REMARK  208  A    between atoms: _529  and  _530
REMARK  209  A    between atoms: _529  and  _532
REMARK  210  A    between atoms: _532  and  _533
REMARK  211  A    between atoms: _538  and  _540
REMARK  212  A    between atoms: _540  and  _541
REMARK  213  A    between atoms: _544  and  _546
REMARK  214  A    between atoms: _546  and  _547
REMARK  215  A    between atoms: _546  and  _549
REMARK  216  A    between atoms: _552  and  _554
REMARK  217  A    between atoms: _554  and  _555
REMARK  218  A    between atoms: _558  and  _560
REMARK  219  A    between atoms: _560  and  _561
REMARK  220  A    between atoms: _560  and  _563
REMARK  221  A    between atoms: _563  and  _564
REMARK  222  A    between atoms: _567  and  _569
REMARK  223  A    between atoms: _569  and  _570
REMARK  224  A    between atoms: _569  and  _572
REMARK  225  A    between atoms: _572  and  _573
REMARK  226  A    between atoms: _573  and  _574
REMARK  227  A    between atoms: _574  and  _575
REMARK  228  A    between atoms: _584  and  _586
REMARK  229  A    between atoms: _586  and  _587
REMARK  230  A    between atoms: _586  and  _589
REMARK  231  A    between atoms: _589  and  _590
REMARK  232  A    between atoms: _593  and  _595
REMARK  233  A    between atoms: _595  and  _596
REMARK  234  A    between atoms: _599  and  _601
REMARK  235  A    between atoms: _601  and  _602
REMARK  236  A    between atoms: _605  and  _607
REMARK  237  A    between atoms: _607  and  _608
REMARK  238  A    between atoms: _607  and  _610
REMARK  239  A    between atoms: _610  and  _611
REMARK  240  A    between atoms: _611  and  _612
REMARK                            x       y       z     vdW  Elec       q    Type
REMARK                         _______ _______ _______ _____ _____    ______ ____
ROOT
ATOM      1  CG  TYR A   1     -28.742 -58.502 -54.187  0.00  0.00    -0.020 A 
ATOM      2  CD2 TYR A   1     -29.135 -59.586 -53.331  0.00  0.00    -0.001 A 
ATOM      3  CE2 TYR A   1     -30.252 -59.461 -52.508  0.00  0.00    +0.036 A 
ATOM      4  CZ  TYR A   1     -31.036 -58.246 -52.606  0.00  0.00    +0.134 A 
ATOM      5  CE1 TYR A   1     -30.684 -57.195 -53.400  0.00  0.00    +0.036 A 
ATOM      6  CD1 TYR A   1     -29.524 -57.306 -54.206  0.00  0.00    -0.001 A 
ENDROOT
BRANCH   4   7
ATOM      7  OH  TYR A   1     -32.146 -58.051 -51.847  0.00  0.00    -0.506 OA
ATOM      8  HH  TYR A   1     -32.538 -57.167 -52.059  0.00  0.00    +0.292 HD
ENDBRANCH   4   7
BRANCH   1   9
ATOM      9  CB  TYR A   1     -27.526 -58.590 -55.039  0.00  0.00    +0.051 C 
BRANCH   9  10
ATOM     10  CA  TYR A   1     -27.726 -59.112 -56.490  0.00  0.00    +0.137 C 
BRANCH  10  11
ATOM     11  N   TYR A   1     -28.266 -60.470 -56.488  0.00  0.00    -0.239 NA
ATOM     12  H   TYR A   1     -28.349 -60.990 -55.591  0.00  0.00    +0.142 HD
ENDBRANCH  10  11
BRANCH  10  13
ATOM     13  C   TYR A   1     -26.378 -59.066 -57.197  0.00  0.00    +0.224 C 
ATOM     14  O   TYR A   1     -26.091 -58.108 -57.919  0.00  0.00    -0.287 OA
ENDBRANCH  10  13
ENDBRANCH   9  10
ENDBRANCH   1   9
TORSDOF 5
REMARK  Name = ../refined-set-2016/3n76/3n76_pocket.pdb
REMARK  240 active torsions:
REMARK  status: ('A' for Active; 'I' for Inactive)
REMARK    1  A    between atoms: _1  and  _3
REMARK    2  A    between atoms: _3  and  _4
REMARK    3  A    between atoms: _3  and  _6
REMARK    4  A    between atoms: _6  and  _7
REMARK    5  A    between atoms: _12  and  _14
REMARK    6  A    between atoms: _14  and  _15
REMARK    7  A    between atoms: _18  and  _19
REMARK    8  A    between atoms: _24  and  _26
REMARK    9  A    between atoms: _26  and  _27
REMARK   10  A    between atoms: _26  and  _29
REMARK   11  A    between atoms: _29  and  _30
REMARK   12  A    between atoms: _35  and  _37
REMARK   13  A    between atoms: _37  and  _38
REMARK   14  A    between atoms: _37  and  _40
REMARK   15  A    between atoms: _40  and  _41
REMARK   16  A    between atoms: _44  and  _46
REMARK   17  A    between atoms: _46  and  _47
REMARK   18  A    between atoms: _49  and  _51
REMARK   19  A    between atoms: _51  and  _52
REMARK   20  A    between atoms: _51  and  _54
REMARK   21  A    between atoms: _54  and  _55
REMARK   22  A    between atoms: _55  and  _56
REMARK   23  A    between atoms: _56  and  _57
REMARK   24  A    between atoms: _66  and  _68
REMARK   25  A    between atoms: _68  and  _69
REMARK   26  A    between atoms: _68  and  _71
REMARK   27  A    between atoms: _71  and  _72
REMARK   28  A    between atoms: _75  and  _77
REMARK   29  A    between atoms: _77  and  _78
REMARK   30  A    between atoms: _80  and  _82
REMARK   31  A    between atoms: _82  and  _83
REMARK   32  A    between atoms: _82  and  _85
REMARK   33  A    between atoms: _85  and  _86
REMARK   34  A    between atoms: _86  and  _87
REMARK   35  A    between atoms: _87  and  _88
REMARK   36  A    between atoms: _97  and  _99
REMARK   37  A    between atoms: _99  and  _100
REMARK   38  A    between atoms: _99  and  _102
REMARK   39  A    between atoms: _102  and  _103
REMARK   40  A    between atoms: _103  and  _104
REMARK   41  A    between atoms: _104  and  _105
REMARK   42  A    between atoms: _114  and  _116
REMARK   43  A    between atoms: _116  and  _117
REMARK   44  A    between atoms: _116  and  _119
REMARK   45  A    between atoms: _119  and  _120
REMARK   46  A    between atoms: _120  and  _121
REMARK   47  A    between atoms: _125  and  _126
REMARK   48  A    between atoms: _131  and  _133
REMARK   49  A    between atoms: _133  and  _134
REMARK   50  A    between atoms: _133  and  _136
REMARK   51  A    between atoms: _139  and  _141
REMARK   52  A    between atoms: _141  and  _142
REMARK   53  A    between atoms: _141  and  _144
REMARK   54  A    between atoms: _144  and  _145
REMARK   55  A    between atoms: _150  and  _151
REMARK   56  A    between atoms: _153  and  _155
REMARK   57  A    between atoms: _155  and  _156
REMARK   58  A    between atoms: _158  and  _160
REMARK   59  A    between atoms: _160  and  _161
REMARK   60  A    between atoms: _160  and  _163
REMARK   61  A    between atoms: _163  and  _164
REMARK   62  A    between atoms: _167  and  _169
REMARK   63  A    between atoms: _169  and  _170
REMARK   64  A    between atoms: _169  and  _172
REMARK   65  A    between atoms: _172  and  _173
REMARK   66  A    between atoms: _176  and  _178
REMARK   67  A    between atoms: _178  and  _179
REMARK   68  A    between atoms: _178  and  _181
REMARK   69  A    between atoms: _181  and  _182
REMARK   70  A    between atoms: _187  and  _189
REMARK   71  A    between atoms: _189  and  _190
REMARK   72  A    between atoms: _189  and  _192
REMARK   73  A    between atoms: _192  and  _193
REMARK   74  A    between atoms: _193  and  _194
REMARK   75  A    between atoms: _199  and  _201
REMARK   76  A    between atoms: _201  and  _202
REMARK   77  A    between atoms: _201  and  _204
REMARK   78  A    between atoms: _204  and  _205
REMARK   79  A    between atoms: _208  and  _210
REMARK   80  A    between atoms: _210  and  _211
REMARK   81  A    between atoms: _210  and  _213
REMARK   82  A    between atoms: _213  and  _214
REMARK   83  A    between atoms: _217  and  _219
REMARK   84  A    between atoms: _219  and  _220
REMARK   85  A    between atoms: _219  and  _222
REMARK   86  A    between atoms: _222  and  _223
REMARK   87  A    between atoms: _228  and  _230
REMARK   88  A    between atoms: _230  and  _231
REMARK   89  A    between atoms: _234  and  _236
REMARK   90  A    between atoms: _236  and  _237
REMARK   91  A    between atoms: _239  and  _241
REMARK   92  A    between atoms: _241  and  _242
REMARK   93  A    between atoms: _244  and  _246
REMARK   94  A    between atoms: _246  and  _247
REMARK   95  A    between atoms: _246  and  _249
REMARK   96  A    between atoms: _249  and  _250
REMARK   97  A    between atoms: _253  and  _255
REMARK   98  A    between atoms: _255  and  _256
REMARK   99  A    between atoms: _255  and  _258
REMARK  100  A    between atoms: _258  and  _259
REMARK  101  A    between atoms: _262  and  _264
REMARK  102  A    between atoms: _264  and  _265
REMARK  103  A    between atoms: _264  and  _267
REMARK  104  A    between atoms: _267  and  _268
REMARK  105  A    between atoms: _273  and  _275
REMARK  106  A    between atoms: _275  and  _276
REMARK  107  A    between atoms: _275  and  _278
REMARK  108  A    between atoms: _278  and  _279
REMARK  109  A    between atoms: _282  and  _284
REMARK  110  A    between atoms: _284  and  _285
REMARK  111  A    between atoms: _284  and  _287
REMARK  112  A    between atoms: _287  and  _288
REMARK  113  A    between atoms: _288  and  _289
REMARK  114  A    between atoms: _292  and  _294
REMARK  115  A    between atoms: _294  and  _295
REMARK  116  A    between atoms: _294  and  _297
REMARK  117  A    between atoms: _300  and  _302
REMARK  118  A    between atoms: _302  and  _303
REMARK  119  A    between atoms: _302  and  _305
REMARK  120  A    between atoms: _305  and  _306
REMARK  121  A    between atoms: _311  and  _313
REMARK  122  A    between atoms: _313  and  _314
REMARK  123  A    between atoms: _313  and  _316
REMARK  124  A    between atoms: _316  and  _317
REMARK  125  A    between atoms: _320  and  _322
REMARK  126  A    between atoms: _322  and  _323
REMARK  127  A    between atoms: _322  and  _325
REMARK  128  A    between atoms: _325  and  _326
REMARK  129  A    between atoms: _328  and  _330
REMARK  130  A    between atoms: _330  and  _331
REMARK  131  A    between atoms: _330  and  _333
REMARK  132  A    between atoms: _333  and  _334
REMARK  133  A    between atoms: _339  and  _341
REMARK  134  A    between atoms: _341  and  _342
REMARK  135  A    between atoms: _341  and  _344
REMARK  136  A    between atoms: _347  and  _349
REMARK  137  A    between atoms: _349  and  _350
REMARK  138  A    between atoms: _349  and  _352
REMARK  139  A    between atoms: _352  and  _353
REMARK  140  A    between atoms: _358  and  _360
REMARK  141  A    between atoms: _360  and  _361
REMARK  142  A    between atoms: _360  and  _363
REMARK  143  A    between atoms: _363  and  _364
REMARK  144  A    between atoms: _364  and  _365
REMARK  145  A    between atoms: _365  and  _366
REMARK  146  A    between atoms: _375  and  _377
REMARK  147  A    between atoms: _377  and  _378
REMARK  148  A    between atoms: _377  and  _380
REMARK  149  A    between atoms: _380  and  _381
REMARK  150  A    between atoms: _381  and  _382
REMARK  151  A    between atoms: _385  and  _387
REMARK  152  A    between atoms: _387  and  _388
REMARK  153  A    between atoms: _387  and  _390
REMARK  154  A    between atoms: _390  and  _391
REMARK  155  A    between atoms: _397  and  _399
REMARK  156  A    between atoms: _399  and  _400
REMARK  157  A    between atoms: _399  and  _402
REMARK  158  A    between atoms: _402  and  _403
REMARK  159  A    between atoms: _403  and  _404
REMARK  160  A    between atoms: _404  and  _405
REMARK  161  A    between atoms: _414  and  _416
REMARK  162  A    between atoms: _416  and  _417
REMARK  163  A    between atoms: _416  and  _419
REMARK  164  A    between atoms: _419  and  _420
REMARK  165  A    between atoms: _420  and  _421
REMARK  166  A    between atoms: _421  and  _422
REMARK  167  A    between atoms: _431  and  _433
REMARK  168  A    between atoms: _433  and  _434
REMARK  169  A    between atoms: _433  and  _436
REMARK  170  A    between atoms: _436  and  _437
REMARK  171  A    between atoms: _442  and  _444
REMARK  172  A    between atoms: _444  and  _445
REMARK  173  A    between atoms: _444  and  _447
REMARK  174  A    between atoms: _447  and  _448
REMARK  175  A    between atoms: _450  and  _452
REMARK  176  A    between atoms: _452  and  _453
REMARK  177  A    between atoms: _452  and  _455
REMARK  178  A    between atoms: _455  and  _456
REMARK  179  A    between atoms: _459  and  _461
REMARK  180  A    between atoms: _461  and  _462
REMARK  181  A    between atoms: _461  and  _464
REMARK  182  A    between atoms: _464  and  _465
REMARK  183  A    between atoms: _468  and  _470
REMARK  184  A    between atoms: _470  and  _471
REMARK  185  A    between atoms: _470  and  _473
REMARK  186  A    between atoms: _476  and  _478
REMARK  187  A    between atoms: _478  and  _479
REMARK  188  A    between atoms: _481  and  _483
REMARK  189  A    between atoms: _483  and  _484
REMARK  190  A    between atoms: _483  and  _486
REMARK  191  A    between atoms: _486  and  _487
REMARK  192  A    between atoms: _490  and  _492
REMARK  193  A    between atoms: _492  and  _493
REMARK  194  A    between atoms: _495  and  _497
REMARK  195  A    between atoms: _497  and  _498
REMARK  196  A    between atoms: _497  and  _500
REMARK  197  A    between atoms: _500  and  _501
REMARK  198  A    between atoms: _504  and  _506
REMARK  199  A    between atoms: _506  and  _507
REMARK  200  A    between atoms: _506  and  _509
REMARK  201  A    between atoms: _509  and  _510
REMARK  202  A    between atoms: _515  and  _516
REMARK  203  A    between atoms: _518  and  _520
REMARK  204  A    between atoms: _520  and  _521
REMARK  205  A    between atoms: _520  and  _523
REMARK  206  A    between atoms: _523  and  _524
REMARK  207  A    between atoms: _527  and  _529
REMARK  208  A    between atoms: _529  and  _530
REMARK  209  A    between atoms: _529  and  _532
REMARK  210  A    between atoms: _532  and  _533
REMARK  211  A    between atoms: _538  and  _540
REMARK  212  A    between atoms: _540  and  _541
REMARK  213  A    between atoms: _544  and  _546
REMARK  214  A    between atoms: _546  and  _547
REMARK  215  A    between atoms: _546  and  _549
REMARK  216  A    between atoms: _552  and  _554
REMARK  217  A    between atoms: _554  and  _555
REMARK  218  A    between atoms: _558  and  _560
REMARK  219  A    between atoms: _560  and  _561
REMARK  220  A    between atoms: _560  and  _563
REMARK  221  A    between atoms: _563  and  _564
REMARK  222  A    between atoms: _567  and  _569
REMARK  223  A    between atoms: _569  and  _570
REMARK  224  A    between atoms: _569  and  _572
REMARK  225  A    between atoms: _572  and  _573
REMARK  226  A    between atoms: _573  and  _574
REMARK  227  A    between atoms: _574  and  _575
REMARK  228  A    between atoms: _584  and  _586
REMARK  229  A    between atoms: _586  and  _587
REMARK  230  A    between atoms: _586  and  _589
REMARK  231  A    between atoms: _589  and  _590
REMARK  232  A    between atoms: _593  and  _595
REMARK  233  A    between atoms: _595  and  _596
REMARK  234  A    between atoms: _599  and  _601
REMARK  235  A    between atoms: _601  and  _602
REMARK  236  A    between atoms: _605  and  _607
REMARK  237  A    between atoms: _607  and  _608
REMARK  238  A    between atoms: _607  and  _610
REMARK  239  A    between atoms: _610  and  _611
REMARK  240  A    between atoms: _611  and  _612
REMARK                            x       y       z     vdW  Elec       q    Type
REMARK                         _______ _______ _______ _____ _____    ______ ____
ROOT
ATOM      1  CA  LEU A   1     -43.140 -52.916 -38.871  0.00  0.00    +0.133 C 
ENDROOT
BRANCH   1   2
ATOM      2  N   LEU A   1     -44.088 -51.802 -38.596  0.00  0.00    -0.239 NA
ATOM      3  H   LEU A   1     -44.213 -51.039 -39.291  0.00  0.00    +0.142 HD
ENDBRANCH   1   2
BRANCH   1   4
ATOM      4  C   LEU A   1     -42.087 -53.033 -37.758  0.00  0.00    +0.224 C 
ATOM      5  O   LEU A   1     -41.734 -54.167 -37.398  0.00  0.00    -0.287 OA
ENDBRANCH   1   4
BRANCH   1   6
ATOM      6  CB  LEU A   1     -42.397 -52.703 -40.221  0.00  0.00    +0.025 C 
BRANCH   6   7
ATOM      7  CG  LEU A   1     -43.354 -52.602 -41.455  0.00  0.00    +0.002 C 
ATOM      8  CD2 LEU A   1     -43.977 -53.952 -41.742  0.00  0.00    +0.000 C 
ATOM      9  CD1 LEU A   1     -42.458 -52.329 -42.736  0.00  0.00    +0.000 C 
ENDBRANCH   6   7
ENDBRANCH   1   6
TORSDOF 4
REMARK  Name = ../refined-set-2016/3n76/3n76_pocket.pdb
REMARK  240 active torsions:
REMARK  status: ('A' for Active; 'I' for Inactive)
REMARK    1  A    between atoms: _1  and  _3
REMARK    2  A    between atoms: _3  and  _4
REMARK    3  A    between atoms: _3  and  _6
REMARK    4  A    between atoms: _6  and  _7
REMARK    5  A    between atoms: _12  and  _14
REMARK    6  A    between atoms: _14  and  _15
REMARK    7  A    between atoms: _18  and  _19
REMARK    8  A    between atoms: _24  and  _26
REMARK    9  A    between atoms: _26  and  _27
REMARK   10  A    between atoms: _26  and  _29
REMARK   11  A    between atoms: _29  and  _30
REMARK   12  A    between atoms: _35  and  _37
REMARK   13  A    between atoms: _37  and  _38
REMARK   14  A    between atoms: _37  and  _40
REMARK   15  A    between atoms: _40  and  _41
REMARK   16  A    between atoms: _44  and  _46
REMARK   17  A    between atoms: _46  and  _47
REMARK   18  A    between atoms: _49  and  _51
REMARK   19  A    between atoms: _51  and  _52
REMARK   20  A    between atoms: _51  and  _54
REMARK   21  A    between atoms: _54  and  _55
REMARK   22  A    between atoms: _55  and  _56
REMARK   23  A    between atoms: _56  and  _57
REMARK   24  A    between atoms: _66  and  _68
REMARK   25  A    between atoms: _68  and  _69
REMARK   26  A    between atoms: _68  and  _71
REMARK   27  A    between atoms: _71  and  _72
REMARK   28  A    between atoms: _75  and  _77
REMARK   29  A    between atoms: _77  and  _78
REMARK   30  A    between atoms: _80  and  _82
REMARK   31  A    between atoms: _82  and  _83
REMARK   32  A    between atoms: _82  and  _85
REMARK   33  A    between atoms: _85  and  _86
REMARK   34  A    between atoms: _86  and  _87
REMARK   35  A    between atoms: _87  and  _88
REMARK   36  A    between atoms: _97  and  _99
REMARK   37  A    between atoms: _99  and  _100
REMARK   38  A    between atoms: _99  and  _102
REMARK   39  A    between atoms: _102  and  _103
REMARK   40  A    between atoms: _103  and  _104
REMARK   41  A    between atoms: _104  and  _105
REMARK   42  A    between atoms: _114  and  _116
REMARK   43  A    between atoms: _116  and  _117
REMARK   44  A    between atoms: _116  and  _119
REMARK   45  A    between atoms: _119  and  _120
REMARK   46  A    between atoms: _120  and  _121
REMARK   47  A    between atoms: _125  and  _126
REMARK   48  A    between atoms: _131  and  _133
REMARK   49  A    between atoms: _133  and  _134
REMARK   50  A    between atoms: _133  and  _136
REMARK   51  A    between atoms: _139  and  _141
REMARK   52  A    between atoms: _141  and  _142
REMARK   53  A    between atoms: _141  and  _144
REMARK   54  A    between atoms: _144  and  _145
REMARK   55  A    between atoms: _150  and  _151
REMARK   56  A    between atoms: _153  and  _155
REMARK   57  A    between atoms: _155  and  _156
REMARK   58  A    between atoms: _158  and  _160
REMARK   59  A    between atoms: _160  and  _161
REMARK   60  A    between atoms: _160  and  _163
REMARK   61  A    between atoms: _163  and  _164
REMARK   62  A    between atoms: _167  and  _169
REMARK   63  A    between atoms: _169  and  _170
REMARK   64  A    between atoms: _169  and  _172
REMARK   65  A    between atoms: _172  and  _173
REMARK   66  A    between atoms: _176  and  _178
REMARK   67  A    between atoms: _178  and  _179
REMARK   68  A    between atoms: _178  and  _181
REMARK   69  A    between atoms: _181  and  _182
REMARK   70  A    between atoms: _187  and  _189
REMARK   71  A    between atoms: _189  and  _190
REMARK   72  A    between atoms: _189  and  _192
REMARK   73  A    between atoms: _192  and  _193
REMARK   74  A    between atoms: _193  and  _194
REMARK   75  A    between atoms: _199  and  _201
REMARK   76  A    between atoms: _201  and  _202
REMARK   77  A    between atoms: _201  and  _204
REMARK   78  A    between atoms: _204  and  _205
REMARK   79  A    between atoms: _208  and  _210
REMARK   80  A    between atoms: _210  and  _211
REMARK   81  A    between atoms: _210  and  _213
REMARK   82  A    between atoms: _213  and  _214
REMARK   83  A    between atoms: _217  and  _219
REMARK   84  A    between atoms: _219  and  _220
REMARK   85  A    between atoms: _219  and  _222
REMARK   86  A    between atoms: _222  and  _223
REMARK   87  A    between atoms: _228  and  _230
REMARK   88  A    between atoms: _230  and  _231
REMARK   89  A    between atoms: _234  and  _236
REMARK   90  A    between atoms: _236  and  _237
REMARK   91  A    between atoms: _239  and  _241
REMARK   92  A    between atoms: _241  and  _242
REMARK   93  A    between atoms: _244  and  _246
REMARK   94  A    between atoms: _246  and  _247
REMARK   95  A    between atoms: _246  and  _249
REMARK   96  A    between atoms: _249  and  _250
REMARK   97  A    between atoms: _253  and  _255
REMARK   98  A    between atoms: _255  and  _256
REMARK   99  A    between atoms: _255  and  _258
REMARK  100  A    between atoms: _258  and  _259
REMARK  101  A    between atoms: _262  and  _264
REMARK  102  A    between atoms: _264  and  _265
REMARK  103  A    between atoms: _264  and  _267
REMARK  104  A    between atoms: _267  and  _268
REMARK  105  A    between atoms: _273  and  _275
REMARK  106  A    between atoms: _275  and  _276
REMARK  107  A    between atoms: _275  and  _278
REMARK  108  A    between atoms: _278  and  _279
REMARK  109  A    between atoms: _282  and  _284
REMARK  110  A    between atoms: _284  and  _285
REMARK  111  A    between atoms: _284  and  _287
REMARK  112  A    between atoms: _287  and  _288
REMARK  113  A    between atoms: _288  and  _289
REMARK  114  A    between atoms: _292  and  _294
REMARK  115  A    between atoms: _294  and  _295
REMARK  116  A    between atoms: _294  and  _297
REMARK  117  A    between atoms: _300  and  _302
REMARK  118  A    between atoms: _302  and  _303
REMARK  119  A    between atoms: _302  and  _305
REMARK  120  A    between atoms: _305  and  _306
REMARK  121  A    between atoms: _311  and  _313
REMARK  122  A    between atoms: _313  and  _314
REMARK  123  A    between atoms: _313  and  _316
REMARK  124  A    between atoms: _316  and  _317
REMARK  125  A    between atoms: _320  and  _322
REMARK  126  A    between atoms: _322  and  _323
REMARK  127  A    between atoms: _322  and  _325
REMARK  128  A    between atoms: _325  and  _326
REMARK  129  A    between atoms: _328  and  _330
REMARK  130  A    between atoms: _330  and  _331
REMARK  131  A    between atoms: _330  and  _333
REMARK  132  A    between atoms: _333  and  _334
REMARK  133  A    between atoms: _339  and  _341
REMARK  134  A    between atoms: _341  and  _342
REMARK  135  A    between atoms: _341  and  _344
REMARK  136  A    between atoms: _347  and  _349
REMARK  137  A    between atoms: _349  and  _350
REMARK  138  A    between atoms: _349  and  _352
REMARK  139  A    between atoms: _352  and  _353
REMARK  140  A    between atoms: _358  and  _360
REMARK  141  A    between atoms: _360  and  _361
REMARK  142  A    between atoms: _360  and  _363
REMARK  143  A    between atoms: _363  and  _364
REMARK  144  A    between atoms: _364  and  _365
REMARK  145  A    between atoms: _365  and  _366
REMARK  146  A    between atoms: _375  and  _377
REMARK  147  A    between atoms: _377  and  _378
REMARK  148  A    between atoms: _377  and  _380
REMARK  149  A    between atoms: _380  and  _381
REMARK  150  A    between atoms: _381  and  _382
REMARK  151  A    between atoms: _385  and  _387
REMARK  152  A    between atoms: _387  and  _388
REMARK  153  A    between atoms: _387  and  _390
REMARK  154  A    between atoms: _390  and  _391
REMARK  155  A    between atoms: _397  and  _399
REMARK  156  A    between atoms: _399  and  _400
REMARK  157  A    between atoms: _399  and  _402
REMARK  158  A    between atoms: _402  and  _403
REMARK  159  A    between atoms: _403  and  _404
REMARK  160  A    between atoms: _404  and  _405
REMARK  161  A    between atoms: _414  and  _416
REMARK  162  A    between atoms: _416  and  _417
REMARK  163  A    between atoms: _416  and  _419
REMARK  164  A    between atoms: _419  and  _420
REMARK  165  A    between atoms: _420  and  _421
REMARK  166  A    between atoms: _421  and  _422
REMARK  167  A    between atoms: _431  and  _433
REMARK  168  A    between atoms: _433  and  _434
REMARK  169  A    between atoms: _433  and  _436
REMARK  170  A    between atoms: _436  and  _437
REMARK  171  A    between atoms: _442  and  _444
REMARK  172  A    between atoms: _444  and  _445
REMARK  173  A    between atoms: _444  and  _447
REMARK  174  A    between atoms: _447  and  _448
REMARK  175  A    between atoms: _450  and  _452
REMARK  176  A    between atoms: _452  and  _453
REMARK  177  A    between atoms: _452  and  _455
REMARK  178  A    between atoms: _455  and  _456
REMARK  179  A    between atoms: _459  and  _461
REMARK  180  A    between atoms: _461  and  _462
REMARK  181  A    between atoms: _461  and  _464
REMARK  182  A    between atoms: _464  and  _465
REMARK  183  A    between atoms: _468  and  _470
REMARK  184  A    between atoms: _470  and  _471
REMARK  185  A    between atoms: _470  and  _473
REMARK  186  A    between atoms: _476  and  _478
REMARK  187  A    between atoms: _478  and  _479
REMARK  188  A    between atoms: _481  and  _483
REMARK  189  A    between atoms: _483  and  _484
REMARK  190  A    between atoms: _483  and  _486
REMARK  191  A    between atoms: _486  and  _487
REMARK  192  A    between atoms: _490  and  _492
REMARK  193  A    between atoms: _492  and  _493
REMARK  194  A    between atoms: _495  and  _497
REMARK  195  A    between atoms: _497  and  _498
REMARK  196  A    between atoms: _497  and  _500
REMARK  197  A    between atoms: _500  and  _501
REMARK  198  A    between atoms: _504  and  _506
REMARK  199  A    between atoms: _506  and  _507
REMARK  200  A    between atoms: _506  and  _509
REMARK  201  A    between atoms: _509  and  _510
REMARK  202  A    between atoms: _515  and  _516
REMARK  203  A    between atoms: _518  and  _520
REMARK  204  A    between atoms: _520  and  _521
REMARK  205  A    between atoms: _520  and  _523
REMARK  206  A    between atoms: _523  and  _524
REMARK  207  A    between atoms: _527  and  _529
REMARK  208  A    between atoms: _529  and  _530
REMARK  209  A    between atoms: _529  and  _532
REMARK  210  A    between atoms: _532  and  _533
REMARK  211  A    between atoms: _538  and  _540
REMARK  212  A    between atoms: _540  and  _541
REMARK  213  A    between atoms: _544  and  _546
REMARK  214  A    between atoms: _546  and  _547
REMARK  215  A    between atoms: _546  and  _549
REMARK  216  A    between atoms: _552  and  _554
REMARK  217  A    between atoms: _554  and  _555
REMARK  218  A    between atoms: _558  and  _560
REMARK  219  A    between atoms: _560  and  _561
REMARK  220  A    between atoms: _560  and  _563
REMARK  221  A    between atoms: _563  and  _564
REMARK  222  A    between atoms: _567  and  _569
REMARK  223  A    between atoms: _569  and  _570
REMARK  224  A    between atoms: _569  and  _572
REMARK  225  A    between atoms: _572  and  _573
REMARK  226  A    between atoms: _573  and  _574
REMARK  227  A    between atoms: _574  and  _575
REMARK  228  A    between atoms: _584  and  _586
REMARK  229  A    between atoms: _586  and  _587
REMARK  230  A    between atoms: _586  and  _589
REMARK  231  A    between atoms: _589  and  _590
REMARK  232  A    between atoms: _593  and  _595
REMARK  233  A    between atoms: _595  and  _596
REMARK  234  A    between atoms: _599  and  _601
REMARK  235  A    between atoms: _601  and  _602
REMARK  236  A    between atoms: _605  and  _607
REMARK  237  A    between atoms: _607  and  _608
REMARK  238  A    between atoms: _607  and  _610
REMARK  239  A    between atoms: _610  and  _611
REMARK  240  A    between atoms: _611  and  _612
REMARK                            x       y       z     vdW  Elec       q    Type
REMARK                         _______ _______ _______ _____ _____    ______ ____
ROOT
ATOM      1  CB  HIS A   1     -38.976 -55.882 -36.178  0.00  0.00    +0.072 C 
ENDROOT
BRANCH   1   2
ATOM      2  CG  HIS A   1     -39.197 -55.739 -37.644  0.00  0.00    +0.082 A 
ATOM      3  ND1 HIS A   1     -38.684 -54.696 -38.387  0.00  0.00    -0.227 NA
ATOM      4  CE1 HIS A   1     -39.004 -54.861 -39.644  0.00  0.00    +0.199 A 
ATOM      5  NE2 HIS A   1     -39.740 -55.955 -39.744  0.00  0.00    -0.221 NA
ATOM      6  CD2 HIS A   1     -39.895 -56.503 -38.506  0.00  0.00    +0.115 A 
ENDBRANCH   1   2
BRANCH   1   7
ATOM      7  CA  HIS A   1     -40.013 -56.821 -35.484  0.00  0.00    +0.139 C 
BRANCH   7   8
ATOM      8  N   HIS A   1     -41.342 -56.274 -35.591  0.00  0.00    -0.239 NA
ATOM      9  H   HIS A   1     -41.490 -55.390 -36.118  0.00  0.00    +0.142 HD
ENDBRANCH   7   8
BRANCH   7  10
ATOM     10  C   HIS A   1     -39.624 -57.069 -34.004  0.00  0.00    +0.224 C 
ATOM     11  O   HIS A   1     -39.026 -58.089 -33.674  0.00  0.00    -0.287 OA
ENDBRANCH   7  10
ENDBRANCH   1   7
TORSDOF 4
REMARK  Name = ../refined-set-2016/3n76/3n76_pocket.pdb
REMARK  240 active torsions:
REMARK  status: ('A' for Active; 'I' for Inactive)
REMARK    1  A    between atoms: _1  and  _3
REMARK    2  A    between atoms: _3  and  _4
REMARK    3  A    between atoms: _3  and  _6
REMARK    4  A    between atoms: _6  and  _7
REMARK    5  A    between atoms: _12  and  _14
REMARK    6  A    between atoms: _14  and  _15
REMARK    7  A    between atoms: _18  and  _19
REMARK    8  A    between atoms: _24  and  _26
REMARK    9  A    between atoms: _26  and  _27
REMARK   10  A    between atoms: _26  and  _29
REMARK   11  A    between atoms: _29  and  _30
REMARK   12  A    between atoms: _35  and  _37
REMARK   13  A    between atoms: _37  and  _38
REMARK   14  A    between atoms: _37  and  _40
REMARK   15  A    between atoms: _40  and  _41
REMARK   16  A    between atoms: _44  and  _46
REMARK   17  A    between atoms: _46  and  _47
REMARK   18  A    between atoms: _49  and  _51
REMARK   19  A    between atoms: _51  and  _52
REMARK   20  A    between atoms: _51  and  _54
REMARK   21  A    between atoms: _54  and  _55
REMARK   22  A    between atoms: _55  and  _56
REMARK   23  A    between atoms: _56  and  _57
REMARK   24  A    between atoms: _66  and  _68
REMARK   25  A    between atoms: _68  and  _69
REMARK   26  A    between atoms: _68  and  _71
REMARK   27  A    between atoms: _71  and  _72
REMARK   28  A    between atoms: _75  and  _77
REMARK   29  A    between atoms: _77  and  _78
REMARK   30  A    between atoms: _80  and  _82
REMARK   31  A    between atoms: _82  and  _83
REMARK   32  A    between atoms: _82  and  _85
REMARK   33  A    between atoms: _85  and  _86
REMARK   34  A    between atoms: _86  and  _87
REMARK   35  A    between atoms: _87  and  _88
REMARK   36  A    between atoms: _97  and  _99
REMARK   37  A    between atoms: _99  and  _100
REMARK   38  A    between atoms: _99  and  _102
REMARK   39  A    between atoms: _102  and  _103
REMARK   40  A    between atoms: _103  and  _104
REMARK   41  A    between atoms: _104  and  _105
REMARK   42  A    between atoms: _114  and  _116
REMARK   43  A    between atoms: _116  and  _117
REMARK   44  A    between atoms: _116  and  _119
REMARK   45  A    between atoms: _119  and  _120
REMARK   46  A    between atoms: _120  and  _121
REMARK   47  A    between atoms: _125  and  _126
REMARK   48  A    between atoms: _131  and  _133
REMARK   49  A    between atoms: _133  and  _134
REMARK   50  A    between atoms: _133  and  _136
REMARK   51  A    between atoms: _139  and  _141
REMARK   52  A    between atoms: _141  and  _142
REMARK   53  A    between atoms: _141  and  _144
REMARK   54  A    between atoms: _144  and  _145
REMARK   55  A    between atoms: _150  and  _151
REMARK   56  A    between atoms: _153  and  _155
REMARK   57  A    between atoms: _155  and  _156
REMARK   58  A    between atoms: _158  and  _160
REMARK   59  A    between atoms: _160  and  _161
REMARK   60  A    between atoms: _160  and  _163
REMARK   61  A    between atoms: _163  and  _164
REMARK   62  A    between atoms: _167  and  _169
REMARK   63  A    between atoms: _169  and  _170
REMARK   64  A    between atoms: _169  and  _172
REMARK   65  A    between atoms: _172  and  _173
REMARK   66  A    between atoms: _176  and  _178
REMARK   67  A    between atoms: _178  and  _179
REMARK   68  A    between atoms: _178  and  _181
REMARK   69  A    between atoms: _181  and  _182
REMARK   70  A    between atoms: _187  and  _189
REMARK   71  A    between atoms: _189  and  _190
REMARK   72  A    between atoms: _189  and  _192
REMARK   73  A    between atoms: _192  and  _193
REMARK   74  A    between atoms: _193  and  _194
REMARK   75  A    between atoms: _199  and  _201
REMARK   76  A    between atoms: _201  and  _202
REMARK   77  A    between atoms: _201  and  _204
REMARK   78  A    between atoms: _204  and  _205
REMARK   79  A    between atoms: _208  and  _210
REMARK   80  A    between atoms: _210  and  _211
REMARK   81  A    between atoms: _210  and  _213
REMARK   82  A    between atoms: _213  and  _214
REMARK   83  A    between atoms: _217  and  _219
REMARK   84  A    between atoms: _219  and  _220
REMARK   85  A    between atoms: _219  and  _222
REMARK   86  A    between atoms: _222  and  _223
REMARK   87  A    between atoms: _228  and  _230
REMARK   88  A    between atoms: _230  and  _231
REMARK   89  A    between atoms: _234  and  _236
REMARK   90  A    between atoms: _236  and  _237
REMARK   91  A    between atoms: _239  and  _241
REMARK   92  A    between atoms: _241  and  _242
REMARK   93  A    between atoms: _244  and  _246
REMARK   94  A    between atoms: _246  and  _247
REMARK   95  A    between atoms: _246  and  _249
REMARK   96  A    between atoms: _249  and  _250
REMARK   97  A    between atoms: _253  and  _255
REMARK   98  A    between atoms: _255  and  _256
REMARK   99  A    between atoms: _255  and  _258
REMARK  100  A    between atoms: _258  and  _259
REMARK  101  A    between atoms: _262  and  _264
REMARK  102  A    between atoms: _264  and  _265
REMARK  103  A    between atoms: _264  and  _267
REMARK  104  A    between atoms: _267  and  _268
REMARK  105  A    between atoms: _273  and  _275
REMARK  106  A    between atoms: _275  and  _276
REMARK  107  A    between atoms: _275  and  _278
REMARK  108  A    between atoms: _278  and  _279
REMARK  109  A    between atoms: _282  and  _284
REMARK  110  A    between atoms: _284  and  _285
REMARK  111  A    between atoms: _284  and  _287
REMARK  112  A    between atoms: _287  and  _288
REMARK  113  A    between atoms: _288  and  _289
REMARK  114  A    between atoms: _292  and  _294
REMARK  115  A    between atoms: _294  and  _295
REMARK  116  A    between atoms: _294  and  _297
REMARK  117  A    between atoms: _300  and  _302
REMARK  118  A    between atoms: _302  and  _303
REMARK  119  A    between atoms: _302  and  _305
REMARK  120  A    between atoms: _305  and  _306
REMARK  121  A    between atoms: _311  and  _313
REMARK  122  A    between atoms: _313  and  _314
REMARK  123  A    between atoms: _313  and  _316
REMARK  124  A    between atoms: _316  and  _317
REMARK  125  A    between atoms: _320  and  _322
REMARK  126  A    between atoms: _322  and  _323
REMARK  127  A    between atoms: _322  and  _325
REMARK  128  A    between atoms: _325  and  _326
REMARK  129  A    between atoms: _328  and  _330
REMARK  130  A    between atoms: _330  and  _331
REMARK  131  A    between atoms: _330  and  _333
REMARK  132  A    between atoms: _333  and  _334
REMARK  133  A    between atoms: _339  and  _341
REMARK  134  A    between atoms: _341  and  _342
REMARK  135  A    between atoms: _341  and  _344
REMARK  136  A    between atoms: _347  and  _349
REMARK  137  A    between atoms: _349  and  _350
REMARK  138  A    between atoms: _349  and  _352
REMARK  139  A    between atoms: _352  and  _353
REMARK  140  A    between atoms: _358  and  _360
REMARK  141  A    between atoms: _360  and  _361
REMARK  142  A    between atoms: _360  and  _363
REMARK  143  A    between atoms: _363  and  _364
REMARK  144  A    between atoms: _364  and  _365
REMARK  145  A    between atoms: _365  and  _366
REMARK  146  A    between atoms: _375  and  _377
REMARK  147  A    between atoms: _377  and  _378
REMARK  148  A    between atoms: _377  and  _380
REMARK  149  A    between atoms: _380  and  _381
REMARK  150  A    between atoms: _381  and  _382
REMARK  151  A    between atoms: _385  and  _387
REMARK  152  A    between atoms: _387  and  _388
REMARK  153  A    between atoms: _387  and  _390
REMARK  154  A    between atoms: _390  and  _391
REMARK  155  A    between atoms: _397  and  _399
REMARK  156  A    between atoms: _399  and  _400
REMARK  157  A    between atoms: _399  and  _402
REMARK  158  A    between atoms: _402  and  _403
REMARK  159  A    between atoms: _403  and  _404
REMARK  160  A    between atoms: _404  and  _405
REMARK  161  A    between atoms: _414  and  _416
REMARK  162  A    between atoms: _416  and  _417
REMARK  163  A    between atoms: _416  and  _419
REMARK  164  A    between atoms: _419  and  _420
REMARK  165  A    between atoms: _420  and  _421
REMARK  166  A    between atoms: _421  and  _422
REMARK  167  A    between atoms: _431  and  _433
REMARK  168  A    between atoms: _433  and  _434
REMARK  169  A    between atoms: _433  and  _436
REMARK  170  A    between atoms: _436  and  _437
REMARK  171  A    between atoms: _442  and  _444
REMARK  172  A    between atoms: _444  and  _445
REMARK  173  A    between atoms: _444  and  _447
REMARK  174  A    between atoms: _447  and  _448
REMARK  175  A    between atoms: _450  and  _452
REMARK  176  A    between atoms: _452  and  _453
REMARK  177  A    between atoms: _452  and  _455
REMARK  178  A    between atoms: _455  and  _456
REMARK  179  A    between atoms: _459  and  _461
REMARK  180  A    between atoms: _461  and  _462
REMARK  181  A    between atoms: _461  and  _464
REMARK  182  A    between atoms: _464  and  _465
REMARK  183  A    between atoms: _468  and  _470
REMARK  184  A    between atoms: _470  and  _471
REMARK  185  A    between atoms: _470  and  _473
REMARK  186  A    between atoms: _476  and  _478
REMARK  187  A    between atoms: _478  and  _479
REMARK  188  A    between atoms: _481  and  _483
REMARK  189  A    between atoms: _483  and  _484
REMARK  190  A    between atoms: _483  and  _486
REMARK  191  A    between atoms: _486  and  _487
REMARK  192  A    between atoms: _490  and  _492
REMARK  193  A    between atoms: _492  and  _493
REMARK  194  A    between atoms: _495  and  _497
REMARK  195  A    between atoms: _497  and  _498
REMARK  196  A    between atoms: _497  and  _500
REMARK  197  A    between atoms: _500  and  _501
REMARK  198  A    between atoms: _504  and  _506
REMARK  199  A    between atoms: _506  and  _507
REMARK  200  A    between atoms: _506  and  _509
REMARK  201  A    between atoms: _509  and  _510
REMARK  202  A    between atoms: _515  and  _516
REMARK  203  A    between atoms: _518  and  _520
REMARK  204  A    between atoms: _520  and  _521
REMARK  205  A    between atoms: _520  and  _523
REMARK  206  A    between atoms: _523  and  _524
REMARK  207  A    between atoms: _527  and  _529
REMARK  208  A    between atoms: _529  and  _530
REMARK  209  A    between atoms: _529  and  _532
REMARK  210  A    between atoms: _532  and  _533
REMARK  211  A    between atoms: _538  and  _540
REMARK  212  A    between atoms: _540  and  _541
REMARK  213  A    between atoms: _544  and  _546
REMARK  214  A    between atoms: _546  and  _547
REMARK  215  A    between atoms: _546  and  _549
REMARK  216  A    between atoms: _552  and  _554
REMARK  217  A    between atoms: _554  and  _555
REMARK  218  A    between atoms: _558  and  _560
REMARK  219  A    between atoms: _560  and  _561
REMARK  220  A    between atoms: _560  and  _563
REMARK  221  A    between atoms: _563  and  _564
REMARK  222  A    between atoms: _567  and  _569
REMARK  223  A    between atoms: _569  and  _570
REMARK  224  A    between atoms: _569  and  _572
REMARK  225  A    between atoms: _572  and  _573
REMARK  226  A    between atoms: _573  and  _574
REMARK  227  A    between atoms: _574  and  _575
REMARK  228  A    between atoms: _584  and  _586
REMARK  229  A    between atoms: _586  and  _587
REMARK  230  A    between atoms: _586  and  _589
REMARK  231  A    between atoms: _589  and  _590
REMARK  232  A    between atoms: _593  and  _595
REMARK  233  A    between atoms: _595  and  _596
REMARK  234  A    between atoms: _599  and  _601
REMARK  235  A    between atoms: _601  and  _602
REMARK  236  A    between atoms: _605  and  _607
REMARK  237  A    between atoms: _607  and  _608
REMARK  238  A    between atoms: _607  and  _610
REMARK  239  A    between atoms: _610  and  _611
REMARK  240  A    between atoms: _611  and  _612
REMARK                            x       y       z     vdW  Elec       q    Type
REMARK                         _______ _______ _______ _____ _____    ______ ____
ROOT
ATOM      1  CA  ALA A   1     -40.707 -61.179 -33.129  0.00  0.00    +0.133 C 
ATOM      2  CB  ALA A   1     -40.481 -61.111 -34.693  0.00  0.00    +0.027 C 
ENDROOT
BRANCH   1   3
ATOM      3  N   ALA A   1     -41.292 -59.972 -32.578  0.00  0.00    -0.239 NA
ATOM      4  H   ALA A   1     -41.393 -59.119 -33.165  0.00  0.00    +0.142 HD
ENDBRANCH   1   3
BRANCH   1   5
ATOM      5  C   ALA A   1     -39.411 -61.527 -32.389  0.00  0.00    +0.224 C 
ATOM      6  O   ALA A   1     -39.248 -62.684 -32.000  0.00  0.00    -0.287 OA
ENDBRANCH   1   5
TORSDOF 2
REMARK  Name = ../refined-set-2016/3n76/3n76_pocket.pdb
REMARK  240 active torsions:
REMARK  status: ('A' for Active; 'I' for Inactive)
REMARK    1  A    between atoms: _1  and  _3
REMARK    2  A    between atoms: _3  and  _4
REMARK    3  A    between atoms: _3  and  _6
REMARK    4  A    between atoms: _6  and  _7
REMARK    5  A    between atoms: _12  and  _14
REMARK    6  A    between atoms: _14  and  _15
REMARK    7  A    between atoms: _18  and  _19
REMARK    8  A    between atoms: _24  and  _26
REMARK    9  A    between atoms: _26  and  _27
REMARK   10  A    between atoms: _26  and  _29
REMARK   11  A    between atoms: _29  and  _30
REMARK   12  A    between atoms: _35  and  _37
REMARK   13  A    between atoms: _37  and  _38
REMARK   14  A    between atoms: _37  and  _40
REMARK   15  A    between atoms: _40  and  _41
REMARK   16  A    between atoms: _44  and  _46
REMARK   17  A    between atoms: _46  and  _47
REMARK   18  A    between atoms: _49  and  _51
REMARK   19  A    between atoms: _51  and  _52
REMARK   20  A    between atoms: _51  and  _54
REMARK   21  A    between atoms: _54  and  _55
REMARK   22  A    between atoms: _55  and  _56
REMARK   23  A    between atoms: _56  and  _57
REMARK   24  A    between atoms: _66  and  _68
REMARK   25  A    between atoms: _68  and  _69
REMARK   26  A    between atoms: _68  and  _71
REMARK   27  A    between atoms: _71  and  _72
REMARK   28  A    between atoms: _75  and  _77
REMARK   29  A    between atoms: _77  and  _78
REMARK   30  A    between atoms: _80  and  _82
REMARK   31  A    between atoms: _82  and  _83
REMARK   32  A    between atoms: _82  and  _85
REMARK   33  A    between atoms: _85  and  _86
REMARK   34  A    between atoms: _86  and  _87
REMARK   35  A    between atoms: _87  and  _88
REMARK   36  A    between atoms: _97  and  _99
REMARK   37  A    between atoms: _99  and  _100
REMARK   38  A    between atoms: _99  and  _102
REMARK   39  A    between atoms: _102  and  _103
REMARK   40  A    between atoms: _103  and  _104
REMARK   41  A    between atoms: _104  and  _105
REMARK   42  A    between atoms: _114  and  _116
REMARK   43  A    between atoms: _116  and  _117
REMARK   44  A    between atoms: _116  and  _119
REMARK   45  A    between atoms: _119  and  _120
REMARK   46  A    between atoms: _120  and  _121
REMARK   47  A    between atoms: _125  and  _126
REMARK   48  A    between atoms: _131  and  _133
REMARK   49  A    between atoms: _133  and  _134
REMARK   50  A    between atoms: _133  and  _136
REMARK   51  A    between atoms: _139  and  _141
REMARK   52  A    between atoms: _141  and  _142
REMARK   53  A    between atoms: _141  and  _144
REMARK   54  A    between atoms: _144  and  _145
REMARK   55  A    between atoms: _150  and  _151
REMARK   56  A    between atoms: _153  and  _155
REMARK   57  A    between atoms: _155  and  _156
REMARK   58  A    between atoms: _158  and  _160
REMARK   59  A    between atoms: _160  and  _161
REMARK   60  A    between atoms: _160  and  _163
REMARK   61  A    between atoms: _163  and  _164
REMARK   62  A    between atoms: _167  and  _169
REMARK   63  A    between atoms: _169  and  _170
REMARK   64  A    between atoms: _169  and  _172
REMARK   65  A    between atoms: _172  and  _173
REMARK   66  A    between atoms: _176  and  _178
REMARK   67  A    between atoms: _178  and  _179
REMARK   68  A    between atoms: _178  and  _181
REMARK   69  A    between atoms: _181  and  _182
REMARK   70  A    between atoms: _187  and  _189
REMARK   71  A    between atoms: _189  and  _190
REMARK   72  A    between atoms: _189  and  _192
REMARK   73  A    between atoms: _192  and  _193
REMARK   74  A    between atoms: _193  and  _194
REMARK   75  A    between atoms: _199  and  _201
REMARK   76  A    between atoms: _201  and  _202
REMARK   77  A    between atoms: _201  and  _204
REMARK   78  A    between atoms: _204  and  _205
REMARK   79  A    between atoms: _208  and  _210
REMARK   80  A    between atoms: _210  and  _211
REMARK   81  A    between atoms: _210  and  _213
REMARK   82  A    between atoms: _213  and  _214
REMARK   83  A    between atoms: _217  and  _219
REMARK   84  A    between atoms: _219  and  _220
REMARK   85  A    between atoms: _219  and  _222
REMARK   86  A    between atoms: _222  and  _223
REMARK   87  A    between atoms: _228  and  _230
REMARK   88  A    between atoms: _230  and  _231
REMARK   89  A    between atoms: _234  and  _236
REMARK   90  A    between atoms: _236  and  _237
REMARK   91  A    between atoms: _239  and  _241
REMARK   92  A    between atoms: _241  and  _242
REMARK   93  A    between atoms: _244  and  _246
REMARK   94  A    between atoms: _246  and  _247
REMARK   95  A    between atoms: _246  and  _249
REMARK   96  A    between atoms: _249  and  _250
REMARK   97  A    between atoms: _253  and  _255
REMARK   98  A    between atoms: _255  and  _256
REMARK   99  A    between atoms: _255  and  _258
REMARK  100  A    between atoms: _258  and  _259
REMARK  101  A    between atoms: _262  and  _264
REMARK  102  A    between atoms: _264  and  _265
REMARK  103  A    between atoms: _264  and  _267
REMARK  104  A    between atoms: _267  and  _268
REMARK  105  A    between atoms: _273  and  _275
REMARK  106  A    between atoms: _275  and  _276
REMARK  107  A    between atoms: _275  and  _278
REMARK  108  A    between atoms: _278  and  _279
REMARK  109  A    between atoms: _282  and  _284
REMARK  110  A    between atoms: _284  and  _285
REMARK  111  A    between atoms: _284  and  _287
REMARK  112  A    between atoms: _287  and  _288
REMARK  113  A    between atoms: _288  and  _289
REMARK  114  A    between atoms: _292  and  _294
REMARK  115  A    between atoms: _294  and  _295
REMARK  116  A    between atoms: _294  and  _297
REMARK  117  A    between atoms: _300  and  _302
REMARK  118  A    between atoms: _302  and  _303
REMARK  119  A    between atoms: _302  and  _305
REMARK  120  A    between atoms: _305  and  _306
REMARK  121  A    between atoms: _311  and  _313
REMARK  122  A    between atoms: _313  and  _314
REMARK  123  A    between atoms: _313  and  _316
REMARK  124  A    between atoms: _316  and  _317
REMARK  125  A    between atoms: _320  and  _322
REMARK  126  A    between atoms: _322  and  _323
REMARK  127  A    between atoms: _322  and  _325
REMARK  128  A    between atoms: _325  and  _326
REMARK  129  A    between atoms: _328  and  _330
REMARK  130  A    between atoms: _330  and  _331
REMARK  131  A    between atoms: _330  and  _333
REMARK  132  A    between atoms: _333  and  _334
REMARK  133  A    between atoms: _339  and  _341
REMARK  134  A    between atoms: _341  and  _342
REMARK  135  A    between atoms: _341  and  _344
REMARK  136  A    between atoms: _347  and  _349
REMARK  137  A    between atoms: _349  and  _350
REMARK  138  A    between atoms: _349  and  _352
REMARK  139  A    between atoms: _352  and  _353
REMARK  140  A    between atoms: _358  and  _360
REMARK  141  A    between atoms: _360  and  _361
REMARK  142  A    between atoms: _360  and  _363
REMARK  143  A    between atoms: _363  and  _364
REMARK  144  A    between atoms: _364  and  _365
REMARK  145  A    between atoms: _365  and  _366
REMARK  146  A    between atoms: _375  and  _377
REMARK  147  A    between atoms: _377  and  _378
REMARK  148  A    between atoms: _377  and  _380
REMARK  149  A    between atoms: _380  and  _381
REMARK  150  A    between atoms: _381  and  _382
REMARK  151  A    between atoms: _385  and  _387
REMARK  152  A    between atoms: _387  and  _388
REMARK  153  A    between atoms: _387  and  _390
REMARK  154  A    between atoms: _390  and  _391
REMARK  155  A    between atoms: _397  and  _399
REMARK  156  A    between atoms: _399  and  _400
REMARK  157  A    between atoms: _399  and  _402
REMARK  158  A    between atoms: _402  and  _403
REMARK  159  A    between atoms: _403  and  _404
REMARK  160  A    between atoms: _404  and  _405
REMARK  161  A    between atoms: _414  and  _416
REMARK  162  A    between atoms: _416  and  _417
REMARK  163  A    between atoms: _416  and  _419
REMARK  164  A    between atoms: _419  and  _420
REMARK  165  A    between atoms: _420  and  _421
REMARK  166  A    between atoms: _421  and  _422
REMARK  167  A    between atoms: _431  and  _433
REMARK  168  A    between atoms: _433  and  _434
REMARK  169  A    between atoms: _433  and  _436
REMARK  170  A    between atoms: _436  and  _437
REMARK  171  A    between atoms: _442  and  _444
REMARK  172  A    between atoms: _444  and  _445
REMARK  173  A    between atoms: _444  and  _447
REMARK  174  A    between atoms: _447  and  _448
REMARK  175  A    between atoms: _450  and  _452
REMARK  176  A    between atoms: _452  and  _453
REMARK  177  A    between atoms: _452  and  _455
REMARK  178  A    between atoms: _455  and  _456
REMARK  179  A    between atoms: _459  and  _461
REMARK  180  A    between atoms: _461  and  _462
REMARK  181  A    between atoms: _461  and  _464
REMARK  182  A    between atoms: _464  and  _465
REMARK  183  A    between atoms: _468  and  _470
REMARK  184  A    between atoms: _470  and  _471
REMARK  185  A    between atoms: _470  and  _473
REMARK  186  A    between atoms: _476  and  _478
REMARK  187  A    between atoms: _478  and  _479
REMARK  188  A    between atoms: _481  and  _483
REMARK  189  A    between atoms: _483  and  _484
REMARK  190  A    between atoms: _483  and  _486
REMARK  191  A    between atoms: _486  and  _487
REMARK  192  A    between atoms: _490  and  _492
REMARK  193  A    between atoms: _492  and  _493
REMARK  194  A    between atoms: _495  and  _497
REMARK  195  A    between atoms: _497  and  _498
REMARK  196  A    between atoms: _497  and  _500
REMARK  197  A    between atoms: _500  and  _501
REMARK  198  A    between atoms: _504  and  _506
REMARK  199  A    between atoms: _506  and  _507
REMARK  200  A    between atoms: _506  and  _509
REMARK  201  A    between atoms: _509  and  _510
REMARK  202  A    between atoms: _515  and  _516
REMARK  203  A    between atoms: _518  and  _520
REMARK  204  A    between atoms: _520  and  _521
REMARK  205  A    between atoms: _520  and  _523
REMARK  206  A    between atoms: _523  and  _524
REMARK  207  A    between atoms: _527  and  _529
REMARK  208  A    between atoms: _529  and  _530
REMARK  209  A    between atoms: _529  and  _532
REMARK  210  A    between atoms: _532  and  _533
REMARK  211  A    between atoms: _538  and  _540
REMARK  212  A    between atoms: _540  and  _541
REMARK  213  A    between atoms: _544  and  _546
REMARK  214  A    between atoms: _546  and  _547
REMARK  215  A    between atoms: _546  and  _549
REMARK  216  A    between atoms: _552  and  _554
REMARK  217  A    between atoms: _554  and  _555
REMARK  218  A    between atoms: _558  and  _560
REMARK  219  A    between atoms: _560  and  _561
REMARK  220  A    between atoms: _560  and  _563
REMARK  221  A    between atoms: _563  and  _564
REMARK  222  A    between atoms: _567  and  _569
REMARK  223  A    between atoms: _569  and  _570
REMARK  224  A    between atoms: _569  and  _572
REMARK  225  A    between atoms: _572  and  _573
REMARK  226  A    between atoms: _573  and  _574
REMARK  227  A    between atoms: _574  and  _575
REMARK  228  A    between atoms: _584  and  _586
REMARK  229  A    between atoms: _586  and  _587
REMARK  230  A    between atoms: _586  and  _589
REMARK  231  A    between atoms: _589  and  _590
REMARK  232  A    between atoms: _593  and  _595
REMARK  233  A    between atoms: _595  and  _596
REMARK  234  A    between atoms: _599  and  _601
REMARK  235  A    between atoms: _601  and  _602
REMARK  236  A    between atoms: _605  and  _607
REMARK  237  A    between atoms: _607  and  _608
REMARK  238  A    between atoms: _607  and  _610
REMARK  239  A    between atoms: _610  and  _611
REMARK  240  A    between atoms: _611  and  _612
REMARK                            x       y       z     vdW  Elec       q    Type
REMARK                         _______ _______ _______ _____ _____    ______ ____
ROOT
ATOM      1  CA  ARG A   4     -48.132 -59.462 -43.434  0.00  0.00    +0.149 C 
ENDROOT
BRANCH   1   2
ATOM      2  C   ARG A   4     -46.783 -60.194 -43.240  0.00  0.00    +0.241 C 
ATOM      3  O   ARG A   4     -46.677 -61.078 -42.356  0.00  0.00    -0.273 OA
ATOM      4  N   ASP A   5     -45.781 -59.897 -44.063  0.00  0.00    -0.297 N 
ATOM      5  H   ASP A   5     -45.876 -59.141 -44.771  0.00  0.00    +0.150 HD
BRANCH   4   6
ATOM      6  CA  ASP A   5     -44.513 -60.683 -43.939  0.00  0.00    +0.160 C 
BRANCH   6   7
ATOM      7  C   ASP A   5     -43.774 -60.441 -42.584  0.00  0.00    +0.241 C 
ATOM      8  N   ALA A   6     -43.857 -59.226 -42.021  0.00  0.00    -0.298 N 
ATOM      9  H   ALA A   6     -44.292 -58.440 -42.544  0.00  0.00    +0.150 HD
ATOM     10  O   ASP A   5     -43.105 -61.344 -42.078  0.00  0.00    -0.273 OA
BRANCH   8  11
ATOM     11  CA  ALA A   6     -43.339 -59.007 -40.680  0.00  0.00    +0.137 C 
ATOM     12  CB  ALA A   6     -43.383 -57.533 -40.288  0.00  0.00    +0.030 C 
BRANCH  11  13
ATOM     13  C   ALA A   6     -44.171 -59.852 -39.658  0.00  0.00    +0.227 C 
ATOM     14  O   ALA A   6     -43.633 -60.415 -38.725  0.00  0.00    -0.286 OA
ENDBRANCH  11  13
ENDBRANCH   8  11
ENDBRANCH   6   7
BRANCH   6  15
ATOM     15  CB  ASP A   5     -43.587 -60.439 -45.118  0.00  0.00    +0.143 C 
BRANCH  15  16
ATOM     16  CG  ASP A   5     -44.165 -61.032 -46.445  0.00  0.00    +0.367 C 
ATOM     17  OD2 ASP A   5     -45.039 -61.944 -46.398  0.00  0.00    -0.246 OA
ATOM     18  OD1 ASP A   5     -43.779 -60.506 -47.508  0.00  0.00    -0.246 OA
ENDBRANCH  15  16
ENDBRANCH   6  15
ENDBRANCH   4   6
ENDBRANCH   1   2
BRANCH   1  21
ATOM     19  C   LEU A   3     -47.282 -57.381 -42.615  0.00  0.00    +0.241 C 
ATOM     20  O   LEU A   3     -46.932 -57.962 -41.583  0.00  0.00    -0.273 OA
ATOM     21  N   ARG A   4     -47.965 -58.003 -43.579  0.00  0.00    -0.297 N 
ATOM     22  H   ARG A   4     -48.359 -57.486 -44.391  0.00  0.00    +0.150 HD
BRANCH  19  23
ATOM     23  CA  LEU A   3     -46.927 -55.909 -42.806  0.00  0.00    +0.149 C 
BRANCH  23  26
ATOM     24  C   ALA A   2     -45.342 -56.174 -44.568  0.00  0.00    +0.241 C 
ATOM     25  O   ALA A   2     -44.581 -56.836 -43.815  0.00  0.00    -0.273 OA
ATOM     26  N   LEU A   3     -46.494 -55.714 -44.175  0.00  0.00    -0.297 N 
ATOM     27  H   LEU A   3     -47.105 -55.205 -44.845  0.00  0.00    +0.150 HD
BRANCH  24  28
ATOM     28  CA  ALA A   2     -44.961 -55.833 -46.027  0.00  0.00    +0.149 C 
ATOM     29  CB  ALA A   2     -44.555 -54.347 -46.116  0.00  0.00    +0.031 C 
BRANCH  28  32
ATOM     30  C   VAL A   1     -46.677 -57.313 -46.993  0.00  0.00    +0.238 C 
ATOM     31  O   VAL A   1     -46.336 -58.277 -46.276  0.00  0.00    -0.274 OA
ATOM     32  N   ALA A   2     -46.033 -56.136 -47.018  0.00  0.00    -0.297 N 
ATOM     33  H   ALA A   2     -46.284 -55.427 -47.737  0.00  0.00    +0.150 HD
BRANCH  30  34
ATOM     34  CA  VAL A   1     -47.891 -57.458 -47.911  0.00  0.00    +0.145 C 
BRANCH  34  35
ATOM     35  CB  VAL A   1     -47.478 -57.920 -49.359  0.00  0.00    +0.025 C 
ATOM     36  CG2 VAL A   1     -46.623 -59.198 -49.339  0.00  0.00    +0.002 C 
ATOM     37  CG1 VAL A   1     -48.756 -58.021 -50.245  0.00  0.00    +0.002 C 
ENDBRANCH  34  35
BRANCH  34  38
ATOM     38  N   VAL A   1     -48.668 -56.186 -47.951  0.00  0.00    -0.238 NA
ATOM     39  H   VAL A   1     -48.613 -55.575 -48.791  0.00  0.00    +0.142 HD
ENDBRANCH  34  38
ENDBRANCH  30  34
ENDBRANCH  28  32
ENDBRANCH  24  28
ENDBRANCH  23  26
BRANCH  23  40
ATOM     40  CB  LEU A   3     -48.120 -55.023 -42.512  0.00  0.00    +0.029 C 
BRANCH  40  41
ATOM     41  CG  LEU A   3     -48.678 -55.200 -41.115  0.00  0.00    +0.002 C 
ATOM     42  CD2 LEU A   3     -47.483 -54.853 -40.163  0.00  0.00    +0.000 C 
ATOM     43  CD1 LEU A   3     -49.825 -54.158 -40.918  0.00  0.00    +0.000 C 
ENDBRANCH  40  41
ENDBRANCH  23  40
ENDBRANCH  19  23
ENDBRANCH   1  21
BRANCH   1  44
ATOM     44  CB  ARG A   4     -48.883 -60.092 -44.593  0.00  0.00    +0.033 C 
BRANCH  44  45
ATOM     45  CG  ARG A   4     -48.958 -61.606 -44.588  0.00  0.00    +0.045 C 
BRANCH  45  46
ATOM     46  CD  ARG A   4     -49.230 -62.019 -46.065  0.00  0.00    +0.174 C 
BRANCH  46  47
ATOM     47  NE  ARG A   4     -49.210 -63.469 -46.334  0.00  0.00    -0.265 N 
ATOM     48  HE  ARG A   4     -48.292 -63.957 -46.305  0.00  0.00    +0.259 HD
ATOM     49  CZ  ARG A   4     -50.304 -64.200 -46.615  0.00  0.00    +0.342 C 
ATOM     50  NH2 ARG A   4     -51.515 -63.663 -46.579  0.00  0.00    -0.292 N 
ATOM     51 HH21 ARG A   4     -51.632 -62.660 -46.330  0.00  0.00    +0.255 HD
ATOM     52 HH22 ARG A   4     -52.349 -64.245 -46.799  0.00  0.00    +0.255 HD
ATOM     53  NH1 ARG A   4     -50.182 -65.477 -46.949  0.00  0.00    -0.292 N 
ATOM     54 HH11 ARG A   4     -49.240 -65.915 -46.994  0.00  0.00    +0.255 HD
ATOM     55 HH12 ARG A   4     -51.028 -66.041 -47.166  0.00  0.00    +0.255 HD
ENDBRANCH  46  47
ENDBRANCH  45  46
ENDBRANCH  44  45
ENDBRANCH   1  44
TORSDOF 21
REMARK  Name = ../refined-set-2016/3n76/3n76_pocket.pdb
REMARK  240 active torsions:
REMARK  status: ('A' for Active; 'I' for Inactive)
REMARK    1  A    between atoms: _1  and  _3
REMARK    2  A    between atoms: _3  and  _4
REMARK    3  A    between atoms: _3  and  _6
REMARK    4  A    between atoms: _6  and  _7
REMARK    5  A    between atoms: _12  and  _14
REMARK    6  A    between atoms: _14  and  _15
REMARK    7  A    between atoms: _18  and  _19
REMARK    8  A    between atoms: _24  and  _26
REMARK    9  A    between atoms: _26  and  _27
REMARK   10  A    between atoms: _26  and  _29
REMARK   11  A    between atoms: _29  and  _30
REMARK   12  A    between atoms: _35  and  _37
REMARK   13  A    between atoms: _37  and  _38
REMARK   14  A    between atoms: _37  and  _40
REMARK   15  A    between atoms: _40  and  _41
REMARK   16  A    between atoms: _44  and  _46
REMARK   17  A    between atoms: _46  and  _47
REMARK   18  A    between atoms: _49  and  _51
REMARK   19  A    between atoms: _51  and  _52
REMARK   20  A    between atoms: _51  and  _54
REMARK   21  A    between atoms: _54  and  _55
REMARK   22  A    between atoms: _55  and  _56
REMARK   23  A    between atoms: _56  and  _57
REMARK   24  A    between atoms: _66  and  _68
REMARK   25  A    between atoms: _68  and  _69
REMARK   26  A    between atoms: _68  and  _71
REMARK   27  A    between atoms: _71  and  _72
REMARK   28  A    between atoms: _75  and  _77
REMARK   29  A    between atoms: _77  and  _78
REMARK   30  A    between atoms: _80  and  _82
REMARK   31  A    between atoms: _82  and  _83
REMARK   32  A    between atoms: _82  and  _85
REMARK   33  A    between atoms: _85  and  _86
REMARK   34  A    between atoms: _86  and  _87
REMARK   35  A    between atoms: _87  and  _88
REMARK   36  A    between atoms: _97  and  _99
REMARK   37  A    between atoms: _99  and  _100
REMARK   38  A    between atoms: _99  and  _102
REMARK   39  A    between atoms: _102  and  _103
REMARK   40  A    between atoms: _103  and  _104
REMARK   41  A    between atoms: _104  and  _105
REMARK   42  A    between atoms: _114  and  _116
REMARK   43  A    between atoms: _116  and  _117
REMARK   44  A    between atoms: _116  and  _119
REMARK   45  A    between atoms: _119  and  _120
REMARK   46  A    between atoms: _120  and  _121
REMARK   47  A    between atoms: _125  and  _126
REMARK   48  A    between atoms: _131  and  _133
REMARK   49  A    between atoms: _133  and  _134
REMARK   50  A    between atoms: _133  and  _136
REMARK   51  A    between atoms: _139  and  _141
REMARK   52  A    between atoms: _141  and  _142
REMARK   53  A    between atoms: _141  and  _144
REMARK   54  A    between atoms: _144  and  _145
REMARK   55  A    between atoms: _150  and  _151
REMARK   56  A    between atoms: _153  and  _155
REMARK   57  A    between atoms: _155  and  _156
REMARK   58  A    between atoms: _158  and  _160
REMARK   59  A    between atoms: _160  and  _161
REMARK   60  A    between atoms: _160  and  _163
REMARK   61  A    between atoms: _163  and  _164
REMARK   62  A    between atoms: _167  and  _169
REMARK   63  A    between atoms: _169  and  _170
REMARK   64  A    between atoms: _169  and  _172
REMARK   65  A    between atoms: _172  and  _173
REMARK   66  A    between atoms: _176  and  _178
REMARK   67  A    between atoms: _178  and  _179
REMARK   68  A    between atoms: _178  and  _181
REMARK   69  A    between atoms: _181  and  _182
REMARK   70  A    between atoms: _187  and  _189
REMARK   71  A    between atoms: _189  and  _190
REMARK   72  A    between atoms: _189  and  _192
REMARK   73  A    between atoms: _192  and  _193
REMARK   74  A    between atoms: _193  and  _194
REMARK   75  A    between atoms: _199  and  _201
REMARK   76  A    between atoms: _201  and  _202
REMARK   77  A    between atoms: _201  and  _204
REMARK   78  A    between atoms: _204  and  _205
REMARK   79  A    between atoms: _208  and  _210
REMARK   80  A    between atoms: _210  and  _211
REMARK   81  A    between atoms: _210  and  _213
REMARK   82  A    between atoms: _213  and  _214
REMARK   83  A    between atoms: _217  and  _219
REMARK   84  A    between atoms: _219  and  _220
REMARK   85  A    between atoms: _219  and  _222
REMARK   86  A    between atoms: _222  and  _223
REMARK   87  A    between atoms: _228  and  _230
REMARK   88  A    between atoms: _230  and  _231
REMARK   89  A    between atoms: _234  and  _236
REMARK   90  A    between atoms: _236  and  _237
REMARK   91  A    between atoms: _239  and  _241
REMARK   92  A    between atoms: _241  and  _242
REMARK   93  A    between atoms: _244  and  _246
REMARK   94  A    between atoms: _246  and  _247
REMARK   95  A    between atoms: _246  and  _249
REMARK   96  A    between atoms: _249  and  _250
REMARK   97  A    between atoms: _253  and  _255
REMARK   98  A    between atoms: _255  and  _256
REMARK   99  A    between atoms: _255  and  _258
REMARK  100  A    between atoms: _258  and  _259
REMARK  101  A    between atoms: _262  and  _264
REMARK  102  A    between atoms: _264  and  _265
REMARK  103  A    between atoms: _264  and  _267
REMARK  104  A    between atoms: _267  and  _268
REMARK  105  A    between atoms: _273  and  _275
REMARK  106  A    between atoms: _275  and  _276
REMARK  107  A    between atoms: _275  and  _278
REMARK  108  A    between atoms: _278  and  _279
REMARK  109  A    between atoms: _282  and  _284
REMARK  110  A    between atoms: _284  and  _285
REMARK  111  A    between atoms: _284  and  _287
REMARK  112  A    between atoms: _287  and  _288
REMARK  113  A    between atoms: _288  and  _289
REMARK  114  A    between atoms: _292  and  _294
REMARK  115  A    between atoms: _294  and  _295
REMARK  116  A    between atoms: _294  and  _297
REMARK  117  A    between atoms: _300  and  _302
REMARK  118  A    between atoms: _302  and  _303
REMARK  119  A    between atoms: _302  and  _305
REMARK  120  A    between atoms: _305  and  _306
REMARK  121  A    between atoms: _311  and  _313
REMARK  122  A    between atoms: _313  and  _314
REMARK  123  A    between atoms: _313  and  _316
REMARK  124  A    between atoms: _316  and  _317
REMARK  125  A    between atoms: _320  and  _322
REMARK  126  A    between atoms: _322  and  _323
REMARK  127  A    between atoms: _322  and  _325
REMARK  128  A    between atoms: _325  and  _326
REMARK  129  A    between atoms: _328  and  _330
REMARK  130  A    between atoms: _330  and  _331
REMARK  131  A    between atoms: _330  and  _333
REMARK  132  A    between atoms: _333  and  _334
REMARK  133  A    between atoms: _339  and  _341
REMARK  134  A    between atoms: _341  and  _342
REMARK  135  A    between atoms: _341  and  _344
REMARK  136  A    between atoms: _347  and  _349
REMARK  137  A    between atoms: _349  and  _350
REMARK  138  A    between atoms: _349  and  _352
REMARK  139  A    between atoms: _352  and  _353
REMARK  140  A    between atoms: _358  and  _360
REMARK  141  A    between atoms: _360  and  _361
REMARK  142  A    between atoms: _360  and  _363
REMARK  143  A    between atoms: _363  and  _364
REMARK  144  A    between atoms: _364  and  _365
REMARK  145  A    between atoms: _365  and  _366
REMARK  146  A    between atoms: _375  and  _377
REMARK  147  A    between atoms: _377  and  _378
REMARK  148  A    between atoms: _377  and  _380
REMARK  149  A    between atoms: _380  and  _381
REMARK  150  A    between atoms: _381  and  _382
REMARK  151  A    between atoms: _385  and  _387
REMARK  152  A    between atoms: _387  and  _388
REMARK  153  A    between atoms: _387  and  _390
REMARK  154  A    between atoms: _390  and  _391
REMARK  155  A    between atoms: _397  and  _399
REMARK  156  A    between atoms: _399  and  _400
REMARK  157  A    between atoms: _399  and  _402
REMARK  158  A    between atoms: _402  and  _403
REMARK  159  A    between atoms: _403  and  _404
REMARK  160  A    between atoms: _404  and  _405
REMARK  161  A    between atoms: _414  and  _416
REMARK  162  A    between atoms: _416  and  _417
REMARK  163  A    between atoms: _416  and  _419
REMARK  164  A    between atoms: _419  and  _420
REMARK  165  A    between atoms: _420  and  _421
REMARK  166  A    between atoms: _421  and  _422
REMARK  167  A    between atoms: _431  and  _433
REMARK  168  A    between atoms: _433  and  _434
REMARK  169  A    between atoms: _433  and  _436
REMARK  170  A    between atoms: _436  and  _437
REMARK  171  A    between atoms: _442  and  _444
REMARK  172  A    between atoms: _444  and  _445
REMARK  173  A    between atoms: _444  and  _447
REMARK  174  A    between atoms: _447  and  _448
REMARK  175  A    between atoms: _450  and  _452
REMARK  176  A    between atoms: _452  and  _453
REMARK  177  A    between atoms: _452  and  _455
REMARK  178  A    between atoms: _455  and  _456
REMARK  179  A    between atoms: _459  and  _461
REMARK  180  A    between atoms: _461  and  _462
REMARK  181  A    between atoms: _461  and  _464
REMARK  182  A    between atoms: _464  and  _465
REMARK  183  A    between atoms: _468  and  _470
REMARK  184  A    between atoms: _470  and  _471
REMARK  185  A    between atoms: _470  and  _473
REMARK  186  A    between atoms: _476  and  _478
REMARK  187  A    between atoms: _478  and  _479
REMARK  188  A    between atoms: _481  and  _483
REMARK  189  A    between atoms: _483  and  _484
REMARK  190  A    between atoms: _483  and  _486
REMARK  191  A    between atoms: _486  and  _487
REMARK  192  A    between atoms: _490  and  _492
REMARK  193  A    between atoms: _492  and  _493
REMARK  194  A    between atoms: _495  and  _497
REMARK  195  A    between atoms: _497  and  _498
REMARK  196  A    between atoms: _497  and  _500
REMARK  197  A    between atoms: _500  and  _501
REMARK  198  A    between atoms: _504  and  _506
REMARK  199  A    between atoms: _506  and  _507
REMARK  200  A    between atoms: _506  and  _509
REMARK  201  A    between atoms: _509  and  _510
REMARK  202  A    between atoms: _515  and  _516
REMARK  203  A    between atoms: _518  and  _520
REMARK  204  A    between atoms: _520  and  _521
REMARK  205  A    between atoms: _520  and  _523
REMARK  206  A    between atoms: _523  and  _524
REMARK  207  A    between atoms: _527  and  _529
REMARK  208  A    between atoms: _529  and  _530
REMARK  209  A    between atoms: _529  and  _532
REMARK  210  A    between atoms: _532  and  _533
REMARK  211  A    between atoms: _538  and  _540
REMARK  212  A    between atoms: _540  and  _541
REMARK  213  A    between atoms: _544  and  _546
REMARK  214  A    between atoms: _546  and  _547
REMARK  215  A    between atoms: _546  and  _549
REMARK  216  A    between atoms: _552  and  _554
REMARK  217  A    between atoms: _554  and  _555
REMARK  218  A    between atoms: _558  and  _560
REMARK  219  A    between atoms: _560  and  _561
REMARK  220  A    between atoms: _560  and  _563
REMARK  221  A    between atoms: _563  and  _564
REMARK  222  A    between atoms: _567  and  _569
REMARK  223  A    between atoms: _569  and  _570
REMARK  224  A    between atoms: _569  and  _572
REMARK  225  A    between atoms: _572  and  _573
REMARK  226  A    between atoms: _573  and  _574
REMARK  227  A    between atoms: _574  and  _575
REMARK  228  A    between atoms: _584  and  _586
REMARK  229  A    between atoms: _586  and  _587
REMARK  230  A    between atoms: _586  and  _589
REMARK  231  A    between atoms: _589  and  _590
REMARK  232  A    between atoms: _593  and  _595
REMARK  233  A    between atoms: _595  and  _596
REMARK  234  A    between atoms: _599  and  _601
REMARK  235  A    between atoms: _601  and  _602
REMARK  236  A    between atoms: _605  and  _607
REMARK  237  A    between atoms: _607  and  _608
REMARK  238  A    between atoms: _607  and  _610
REMARK  239  A    between atoms: _610  and  _611
REMARK  240  A    between atoms: _611  and  _612
REMARK                            x       y       z     vdW  Elec       q    Type
REMARK                         _______ _______ _______ _____ _____    ______ ____
ROOT
ATOM      1  C   ALA A   1     -44.410 -64.583 -39.695  0.00  0.00    +0.238 C 
ATOM      2  O   ALA A   1     -44.350 -65.762 -39.315  0.00  0.00    -0.274 OA
ATOM      3  N   GLU A   2     -43.503 -63.649 -39.375  0.00  0.00    -0.298 N 
ATOM      4  H   GLU A   2     -43.663 -62.666 -39.675  0.00  0.00    +0.150 HD
ENDROOT
BRANCH   1   5
ATOM      5  CA  ALA A   1     -45.626 -64.092 -40.471  0.00  0.00    +0.145 C 
ATOM      6  CB  ALA A   1     -45.448 -64.394 -41.939  0.00  0.00    +0.028 C 
BRANCH   5   7
ATOM      7  N   ALA A   1     -45.944 -62.642 -40.234  0.00  0.00    -0.238 NA
ATOM      8  H   ALA A   1     -46.041 -62.005 -41.050  0.00  0.00    +0.142 HD
ENDBRANCH   5   7
ENDBRANCH   1   5
BRANCH   3   9
ATOM      9  CA  GLU A   2     -42.303 -63.970 -38.622  0.00  0.00    +0.137 C 
BRANCH   9  10
ATOM     10  C   GLU A   2     -42.546 -64.273 -37.135  0.00  0.00    +0.227 C 
ATOM     11  O   GLU A   2     -41.719 -64.961 -36.489  0.00  0.00    -0.286 OA
ENDBRANCH   9  10
BRANCH   9  12
ATOM     12  CB  GLU A   2     -41.307 -62.836 -38.753  0.00  0.00    +0.039 C 
BRANCH  12  13
ATOM     13  CG  GLU A   2     -39.916 -63.285 -38.677  0.00  0.00    +0.116 C 
BRANCH  13  14
ATOM     14  CD  GLU A   2     -38.920 -62.173 -38.394  0.00  0.00    +0.365 C 
ATOM     15  OE2 GLU A   2     -37.844 -62.509 -37.857  0.00  0.00    -0.246 OA
ATOM     16  OE1 GLU A   2     -39.194 -60.990 -38.671  0.00  0.00    -0.246 OA
ENDBRANCH  13  14
ENDBRANCH  12  13
ENDBRANCH   9  12
ENDBRANCH   3   9
TORSDOF 7
REMARK  Name = ../refined-set-2016/3n76/3n76_pocket.pdb
REMARK  240 active torsions:
REMARK  status: ('A' for Active; 'I' for Inactive)
REMARK    1  A    between atoms: _1  and  _3
REMARK    2  A    between atoms: _3  and  _4
REMARK    3  A    between atoms: _3  and  _6
REMARK    4  A    between atoms: _6  and  _7
REMARK    5  A    between atoms: _12  and  _14
REMARK    6  A    between atoms: _14  and  _15
REMARK    7  A    between atoms: _18  and  _19
REMARK    8  A    between atoms: _24  and  _26
REMARK    9  A    between atoms: _26  and  _27
REMARK   10  A    between atoms: _26  and  _29
REMARK   11  A    between atoms: _29  and  _30
REMARK   12  A    between atoms: _35  and  _37
REMARK   13  A    between atoms: _37  and  _38
REMARK   14  A    between atoms: _37  and  _40
REMARK   15  A    between atoms: _40  and  _41
REMARK   16  A    between atoms: _44  and  _46
REMARK   17  A    between atoms: _46  and  _47
REMARK   18  A    between atoms: _49  and  _51
REMARK   19  A    between atoms: _51  and  _52
REMARK   20  A    between atoms: _51  and  _54
REMARK   21  A    between atoms: _54  and  _55
REMARK   22  A    between atoms: _55  and  _56
REMARK   23  A    between atoms: _56  and  _57
REMARK   24  A    between atoms: _66  and  _68
REMARK   25  A    between atoms: _68  and  _69
REMARK   26  A    between atoms: _68  and  _71
REMARK   27  A    between atoms: _71  and  _72
REMARK   28  A    between atoms: _75  and  _77
REMARK   29  A    between atoms: _77  and  _78
REMARK   30  A    between atoms: _80  and  _82
REMARK   31  A    between atoms: _82  and  _83
REMARK   32  A    between atoms: _82  and  _85
REMARK   33  A    between atoms: _85  and  _86
REMARK   34  A    between atoms: _86  and  _87
REMARK   35  A    between atoms: _87  and  _88
REMARK   36  A    between atoms: _97  and  _99
REMARK   37  A    between atoms: _99  and  _100
REMARK   38  A    between atoms: _99  and  _102
REMARK   39  A    between atoms: _102  and  _103
REMARK   40  A    between atoms: _103  and  _104
REMARK   41  A    between atoms: _104  and  _105
REMARK   42  A    between atoms: _114  and  _116
REMARK   43  A    between atoms: _116  and  _117
REMARK   44  A    between atoms: _116  and  _119
REMARK   45  A    between atoms: _119  and  _120
REMARK   46  A    between atoms: _120  and  _121
REMARK   47  A    between atoms: _125  and  _126
REMARK   48  A    between atoms: _131  and  _133
REMARK   49  A    between atoms: _133  and  _134
REMARK   50  A    between atoms: _133  and  _136
REMARK   51  A    between atoms: _139  and  _141
REMARK   52  A    between atoms: _141  and  _142
REMARK   53  A    between atoms: _141  and  _144
REMARK   54  A    between atoms: _144  and  _145
REMARK   55  A    between atoms: _150  and  _151
REMARK   56  A    between atoms: _153  and  _155
REMARK   57  A    between atoms: _155  and  _156
REMARK   58  A    between atoms: _158  and  _160
REMARK   59  A    between atoms: _160  and  _161
REMARK   60  A    between atoms: _160  and  _163
REMARK   61  A    between atoms: _163  and  _164
REMARK   62  A    between atoms: _167  and  _169
REMARK   63  A    between atoms: _169  and  _170
REMARK   64  A    between atoms: _169  and  _172
REMARK   65  A    between atoms: _172  and  _173
REMARK   66  A    between atoms: _176  and  _178
REMARK   67  A    between atoms: _178  and  _179
REMARK   68  A    between atoms: _178  and  _181
REMARK   69  A    between atoms: _181  and  _182
REMARK   70  A    between atoms: _187  and  _189
REMARK   71  A    between atoms: _189  and  _190
REMARK   72  A    between atoms: _189  and  _192
REMARK   73  A    between atoms: _192  and  _193
REMARK   74  A    between atoms: _193  and  _194
REMARK   75  A    between atoms: _199  and  _201
REMARK   76  A    between atoms: _201  and  _202
REMARK   77  A    between atoms: _201  and  _204
REMARK   78  A    between atoms: _204  and  _205
REMARK   79  A    between atoms: _208  and  _210
REMARK   80  A    between atoms: _210  and  _211
REMARK   81  A    between atoms: _210  and  _213
REMARK   82  A    between atoms: _213  and  _214
REMARK   83  A    between atoms: _217  and  _219
REMARK   84  A    between atoms: _219  and  _220
REMARK   85  A    between atoms: _219  and  _222
REMARK   86  A    between atoms: _222  and  _223
REMARK   87  A    between atoms: _228  and  _230
REMARK   88  A    between atoms: _230  and  _231
REMARK   89  A    between atoms: _234  and  _236
REMARK   90  A    between atoms: _236  and  _237
REMARK   91  A    between atoms: _239  and  _241
REMARK   92  A    between atoms: _241  and  _242
REMARK   93  A    between atoms: _244  and  _246
REMARK   94  A    between atoms: _246  and  _247
REMARK   95  A    between atoms: _246  and  _249
REMARK   96  A    between atoms: _249  and  _250
REMARK   97  A    between atoms: _253  and  _255
REMARK   98  A    between atoms: _255  and  _256
REMARK   99  A    between atoms: _255  and  _258
REMARK  100  A    between atoms: _258  and  _259
REMARK  101  A    between atoms: _262  and  _264
REMARK  102  A    between atoms: _264  and  _265
REMARK  103  A    between atoms: _264  and  _267
REMARK  104  A    between atoms: _267  and  _268
REMARK  105  A    between atoms: _273  and  _275
REMARK  106  A    between atoms: _275  and  _276
REMARK  107  A    between atoms: _275  and  _278
REMARK  108  A    between atoms: _278  and  _279
REMARK  109  A    between atoms: _282  and  _284
REMARK  110  A    between atoms: _284  and  _285
REMARK  111  A    between atoms: _284  and  _287
REMARK  112  A    between atoms: _287  and  _288
REMARK  113  A    between atoms: _288  and  _289
REMARK  114  A    between atoms: _292  and  _294
REMARK  115  A    between atoms: _294  and  _295
REMARK  116  A    between atoms: _294  and  _297
REMARK  117  A    between atoms: _300  and  _302
REMARK  118  A    between atoms: _302  and  _303
REMARK  119  A    between atoms: _302  and  _305
REMARK  120  A    between atoms: _305  and  _306
REMARK  121  A    between atoms: _311  and  _313
REMARK  122  A    between atoms: _313  and  _314
REMARK  123  A    between atoms: _313  and  _316
REMARK  124  A    between atoms: _316  and  _317
REMARK  125  A    between atoms: _320  and  _322
REMARK  126  A    between atoms: _322  and  _323
REMARK  127  A    between atoms: _322  and  _325
REMARK  128  A    between atoms: _325  and  _326
REMARK  129  A    between atoms: _328  and  _330
REMARK  130  A    between atoms: _330  and  _331
REMARK  131  A    between atoms: _330  and  _333
REMARK  132  A    between atoms: _333  and  _334
REMARK  133  A    between atoms: _339  and  _341
REMARK  134  A    between atoms: _341  and  _342
REMARK  135  A    between atoms: _341  and  _344
REMARK  136  A    between atoms: _347  and  _349
REMARK  137  A    between atoms: _349  and  _350
REMARK  138  A    between atoms: _349  and  _352
REMARK  139  A    between atoms: _352  and  _353
REMARK  140  A    between atoms: _358  and  _360
REMARK  141  A    between atoms: _360  and  _361
REMARK  142  A    between atoms: _360  and  _363
REMARK  143  A    between atoms: _363  and  _364
REMARK  144  A    between atoms: _364  and  _365
REMARK  145  A    between atoms: _365  and  _366
REMARK  146  A    between atoms: _375  and  _377
REMARK  147  A    between atoms: _377  and  _378
REMARK  148  A    between atoms: _377  and  _380
REMARK  149  A    between atoms: _380  and  _381
REMARK  150  A    between atoms: _381  and  _382
REMARK  151  A    between atoms: _385  and  _387
REMARK  152  A    between atoms: _387  and  _388
REMARK  153  A    between atoms: _387  and  _390
REMARK  154  A    between atoms: _390  and  _391
REMARK  155  A    between atoms: _397  and  _399
REMARK  156  A    between atoms: _399  and  _400
REMARK  157  A    between atoms: _399  and  _402
REMARK  158  A    between atoms: _402  and  _403
REMARK  159  A    between atoms: _403  and  _404
REMARK  160  A    between atoms: _404  and  _405
REMARK  161  A    between atoms: _414  and  _416
REMARK  162  A    between atoms: _416  and  _417
REMARK  163  A    between atoms: _416  and  _419
REMARK  164  A    between atoms: _419  and  _420
REMARK  165  A    between atoms: _420  and  _421
REMARK  166  A    between atoms: _421  and  _422
REMARK  167  A    between atoms: _431  and  _433
REMARK  168  A    between atoms: _433  and  _434
REMARK  169  A    between atoms: _433  and  _436
REMARK  170  A    between atoms: _436  and  _437
REMARK  171  A    between atoms: _442  and  _444
REMARK  172  A    between atoms: _444  and  _445
REMARK  173  A    between atoms: _444  and  _447
REMARK  174  A    between atoms: _447  and  _448
REMARK  175  A    between atoms: _450  and  _452
REMARK  176  A    between atoms: _452  and  _453
REMARK  177  A    between atoms: _452  and  _455
REMARK  178  A    between atoms: _455  and  _456
REMARK  179  A    between atoms: _459  and  _461
REMARK  180  A    between atoms: _461  and  _462
REMARK  181  A    between atoms: _461  and  _464
REMARK  182  A    between atoms: _464  and  _465
REMARK  183  A    between atoms: _468  and  _470
REMARK  184  A    between atoms: _470  and  _471
REMARK  185  A    between atoms: _470  and  _473
REMARK  186  A    between atoms: _476  and  _478
REMARK  187  A    between atoms: _478  and  _479
REMARK  188  A    between atoms: _481  and  _483
REMARK  189  A    between atoms: _483  and  _484
REMARK  190  A    between atoms: _483  and  _486
REMARK  191  A    between atoms: _486  and  _487
REMARK  192  A    between atoms: _490  and  _492
REMARK  193  A    between atoms: _492  and  _493
REMARK  194  A    between atoms: _495  and  _497
REMARK  195  A    between atoms: _497  and  _498
REMARK  196  A    between atoms: _497  and  _500
REMARK  197  A    between atoms: _500  and  _501
REMARK  198  A    between atoms: _504  and  _506
REMARK  199  A    between atoms: _506  and  _507
REMARK  200  A    between atoms: _506  and  _509
REMARK  201  A    between atoms: _509  and  _510
REMARK  202  A    between atoms: _515  and  _516
REMARK  203  A    between atoms: _518  and  _520
REMARK  204  A    between atoms: _520  and  _521
REMARK  205  A    between atoms: _520  and  _523
REMARK  206  A    between atoms: _523  and  _524
REMARK  207  A    between atoms: _527  and  _529
REMARK  208  A    between atoms: _529  and  _530
REMARK  209  A    between atoms: _529  and  _532
REMARK  210  A    between atoms: _532  and  _533
REMARK  211  A    between atoms: _538  and  _540
REMARK  212  A    between atoms: _540  and  _541
REMARK  213  A    between atoms: _544  and  _546
REMARK  214  A    between atoms: _546  and  _547
REMARK  215  A    between atoms: _546  and  _549
REMARK  216  A    between atoms: _552  and  _554
REMARK  217  A    between atoms: _554  and  _555
REMARK  218  A    between atoms: _558  and  _560
REMARK  219  A    between atoms: _560  and  _561
REMARK  220  A    between atoms: _560  and  _563
REMARK  221  A    between atoms: _563  and  _564
REMARK  222  A    between atoms: _567  and  _569
REMARK  223  A    between atoms: _569  and  _570
REMARK  224  A    between atoms: _569  and  _572
REMARK  225  A    between atoms: _572  and  _573
REMARK  226  A    between atoms: _573  and  _574
REMARK  227  A    between atoms: _574  and  _575
REMARK  228  A    between atoms: _584  and  _586
REMARK  229  A    between atoms: _586  and  _587
REMARK  230  A    between atoms: _586  and  _589
REMARK  231  A    between atoms: _589  and  _590
REMARK  232  A    between atoms: _593  and  _595
REMARK  233  A    between atoms: _595  and  _596
REMARK  234  A    between atoms: _599  and  _601
REMARK  235  A    between atoms: _601  and  _602
REMARK  236  A    between atoms: _605  and  _607
REMARK  237  A    between atoms: _607  and  _608
REMARK  238  A    between atoms: _607  and  _610
REMARK  239  A    between atoms: _610  and  _611
REMARK  240  A    between atoms: _611  and  _612
REMARK                            x       y       z     vdW  Elec       q    Type
REMARK                         _______ _______ _______ _____ _____    ______ ____
ROOT
ATOM      1  O   HOH     1     -33.139 -64.625 -44.165  0.00  0.00    +0.000 OA
ENDROOT
TORSDOF 0
REMARK  Name = ../refined-set-2016/3n76/3n76_pocket.pdb
REMARK  240 active torsions:
REMARK  status: ('A' for Active; 'I' for Inactive)
REMARK    1  A    between atoms: _1  and  _3
REMARK    2  A    between atoms: _3  and  _4
REMARK    3  A    between atoms: _3  and  _6
REMARK    4  A    between atoms: _6  and  _7
REMARK    5  A    between atoms: _12  and  _14
REMARK    6  A    between atoms: _14  and  _15
REMARK    7  A    between atoms: _18  and  _19
REMARK    8  A    between atoms: _24  and  _26
REMARK    9  A    between atoms: _26  and  _27
REMARK   10  A    between atoms: _26  and  _29
REMARK   11  A    between atoms: _29  and  _30
REMARK   12  A    between atoms: _35  and  _37
REMARK   13  A    between atoms: _37  and  _38
REMARK   14  A    between atoms: _37  and  _40
REMARK   15  A    between atoms: _40  and  _41
REMARK   16  A    between atoms: _44  and  _46
REMARK   17  A    between atoms: _46  and  _47
REMARK   18  A    between atoms: _49  and  _51
REMARK   19  A    between atoms: _51  and  _52
REMARK   20  A    between atoms: _51  and  _54
REMARK   21  A    between atoms: _54  and  _55
REMARK   22  A    between atoms: _55  and  _56
REMARK   23  A    between atoms: _56  and  _57
REMARK   24  A    between atoms: _66  and  _68
REMARK   25  A    between atoms: _68  and  _69
REMARK   26  A    between atoms: _68  and  _71
REMARK   27  A    between atoms: _71  and  _72
REMARK   28  A    between atoms: _75  and  _77
REMARK   29  A    between atoms: _77  and  _78
REMARK   30  A    between atoms: _80  and  _82
REMARK   31  A    between atoms: _82  and  _83
REMARK   32  A    between atoms: _82  and  _85
REMARK   33  A    between atoms: _85  and  _86
REMARK   34  A    between atoms: _86  and  _87
REMARK   35  A    between atoms: _87  and  _88
REMARK   36  A    between atoms: _97  and  _99
REMARK   37  A    between atoms: _99  and  _100
REMARK   38  A    between atoms: _99  and  _102
REMARK   39  A    between atoms: _102  and  _103
REMARK   40  A    between atoms: _103  and  _104
REMARK   41  A    between atoms: _104  and  _105
REMARK   42  A    between atoms: _114  and  _116
REMARK   43  A    between atoms: _116  and  _117
REMARK   44  A    between atoms: _116  and  _119
REMARK   45  A    between atoms: _119  and  _120
REMARK   46  A    between atoms: _120  and  _121
REMARK   47  A    between atoms: _125  and  _126
REMARK   48  A    between atoms: _131  and  _133
REMARK   49  A    between atoms: _133  and  _134
REMARK   50  A    between atoms: _133  and  _136
REMARK   51  A    between atoms: _139  and  _141
REMARK   52  A    between atoms: _141  and  _142
REMARK   53  A    between atoms: _141  and  _144
REMARK   54  A    between atoms: _144  and  _145
REMARK   55  A    between atoms: _150  and  _151
REMARK   56  A    between atoms: _153  and  _155
REMARK   57  A    between atoms: _155  and  _156
REMARK   58  A    between atoms: _158  and  _160
REMARK   59  A    between atoms: _160  and  _161
REMARK   60  A    between atoms: _160  and  _163
REMARK   61  A    between atoms: _163  and  _164
REMARK   62  A    between atoms: _167  and  _169
REMARK   63  A    between atoms: _169  and  _170
REMARK   64  A    between atoms: _169  and  _172
REMARK   65  A    between atoms: _172  and  _173
REMARK   66  A    between atoms: _176  and  _178
REMARK   67  A    between atoms: _178  and  _179
REMARK   68  A    between atoms: _178  and  _181
REMARK   69  A    between atoms: _181  and  _182
REMARK   70  A    between atoms: _187  and  _189
REMARK   71  A    between atoms: _189  and  _190
REMARK   72  A    between atoms: _189  and  _192
REMARK   73  A    between atoms: _192  and  _193
REMARK   74  A    between atoms: _193  and  _194
REMARK   75  A    between atoms: _199  and  _201
REMARK   76  A    between atoms: _201  and  _202
REMARK   77  A    between atoms: _201  and  _204
REMARK   78  A    between atoms: _204  and  _205
REMARK   79  A    between atoms: _208  and  _210
REMARK   80  A    between atoms: _210  and  _211
REMARK   81  A    between atoms: _210  and  _213
REMARK   82  A    between atoms: _213  and  _214
REMARK   83  A    between atoms: _217  and  _219
REMARK   84  A    between atoms: _219  and  _220
REMARK   85  A    between atoms: _219  and  _222
REMARK   86  A    between atoms: _222  and  _223
REMARK   87  A    between atoms: _228  and  _230
REMARK   88  A    between atoms: _230  and  _231
REMARK   89  A    between atoms: _234  and  _236
REMARK   90  A    between atoms: _236  and  _237
REMARK   91  A    between atoms: _239  and  _241
REMARK   92  A    between atoms: _241  and  _242
REMARK   93  A    between atoms: _244  and  _246
REMARK   94  A    between atoms: _246  and  _247
REMARK   95  A    between atoms: _246  and  _249
REMARK   96  A    between atoms: _249  and  _250
REMARK   97  A    between atoms: _253  and  _255
REMARK   98  A    between atoms: _255  and  _256
REMARK   99  A    between atoms: _255  and  _258
REMARK  100  A    between atoms: _258  and  _259
REMARK  101  A    between atoms: _262  and  _264
REMARK  102  A    between atoms: _264  and  _265
REMARK  103  A    between atoms: _264  and  _267
REMARK  104  A    between atoms: _267  and  _268
REMARK  105  A    between atoms: _273  and  _275
REMARK  106  A    between atoms: _275  and  _276
REMARK  107  A    between atoms: _275  and  _278
REMARK  108  A    between atoms: _278  and  _279
REMARK  109  A    between atoms: _282  and  _284
REMARK  110  A    between atoms: _284  and  _285
REMARK  111  A    between atoms: _284  and  _287
REMARK  112  A    between atoms: _287  and  _288
REMARK  113  A    between atoms: _288  and  _289
REMARK  114  A    between atoms: _292  and  _294
REMARK  115  A    between atoms: _294  and  _295
REMARK  116  A    between atoms: _294  and  _297
REMARK  117  A    between atoms: _300  and  _302
REMARK  118  A    between atoms: _302  and  _303
REMARK  119  A    between atoms: _302  and  _305
REMARK  120  A    between atoms: _305  and  _306
REMARK  121  A    between atoms: _311  and  _313
REMARK  122  A    between atoms: _313  and  _314
REMARK  123  A    between atoms: _313  and  _316
REMARK  124  A    between atoms: _316  and  _317
REMARK  125  A    between atoms: _320  and  _322
REMARK  126  A    between atoms: _322  and  _323
REMARK  127  A    between atoms: _322  and  _325
REMARK  128  A    between atoms: _325  and  _326
REMARK  129  A    between atoms: _328  and  _330
REMARK  130  A    between atoms: _330  and  _331
REMARK  131  A    between atoms: _330  and  _333
REMARK  132  A    between atoms: _333  and  _334
REMARK  133  A    between atoms: _339  and  _341
REMARK  134  A    between atoms: _341  and  _342
REMARK  135  A    between atoms: _341  and  _344
REMARK  136  A    between atoms: _347  and  _349
REMARK  137  A    between atoms: _349  and  _350
REMARK  138  A    between atoms: _349  and  _352
REMARK  139  A    between atoms: _352  and  _353
REMARK  140  A    between atoms: _358  and  _360
REMARK  141  A    between atoms: _360  and  _361
REMARK  142  A    between atoms: _360  and  _363
REMARK  143  A    between atoms: _363  and  _364
REMARK  144  A    between atoms: _364  and  _365
REMARK  145  A    between atoms: _365  and  _366
REMARK  146  A    between atoms: _375  and  _377
REMARK  147  A    between atoms: _377  and  _378
REMARK  148  A    between atoms: _377  and  _380
REMARK  149  A    between atoms: _380  and  _381
REMARK  150  A    between atoms: _381  and  _382
REMARK  151  A    between atoms: _385  and  _387
REMARK  152  A    between atoms: _387  and  _388
REMARK  153  A    between atoms: _387  and  _390
REMARK  154  A    between atoms: _390  and  _391
REMARK  155  A    between atoms: _397  and  _399
REMARK  156  A    between atoms: _399  and  _400
REMARK  157  A    between atoms: _399  and  _402
REMARK  158  A    between atoms: _402  and  _403
REMARK  159  A    between atoms: _403  and  _404
REMARK  160  A    between atoms: _404  and  _405
REMARK  161  A    between atoms: _414  and  _416
REMARK  162  A    between atoms: _416  and  _417
REMARK  163  A    between atoms: _416  and  _419
REMARK  164  A    between atoms: _419  and  _420
REMARK  165  A    between atoms: _420  and  _421
REMARK  166  A    between atoms: _421  and  _422
REMARK  167  A    between atoms: _431  and  _433
REMARK  168  A    between atoms: _433  and  _434
REMARK  169  A    between atoms: _433  and  _436
REMARK  170  A    between atoms: _436  and  _437
REMARK  171  A    between atoms: _442  and  _444
REMARK  172  A    between atoms: _444  and  _445
REMARK  173  A    between atoms: _444  and  _447
REMARK  174  A    between atoms: _447  and  _448
REMARK  175  A    between atoms: _450  and  _452
REMARK  176  A    between atoms: _452  and  _453
REMARK  177  A    between atoms: _452  and  _455
REMARK  178  A    between atoms: _455  and  _456
REMARK  179  A    between atoms: _459  and  _461
REMARK  180  A    between atoms: _461  and  _462
REMARK  181  A    between atoms: _461  and  _464
REMARK  182  A    between atoms: _464  and  _465
REMARK  183  A    between atoms: _468  and  _470
REMARK  184  A    between atoms: _470  and  _471
REMARK  185  A    between atoms: _470  and  _473
REMARK  186  A    between atoms: _476  and  _478
REMARK  187  A    between atoms: _478  and  _479
REMARK  188  A    between atoms: _481  and  _483
REMARK  189  A    between atoms: _483  and  _484
REMARK  190  A    between atoms: _483  and  _486
REMARK  191  A    between atoms: _486  and  _487
REMARK  192  A    between atoms: _490  and  _492
REMARK  193  A    between atoms: _492  and  _493
REMARK  194  A    between atoms: _495  and  _497
REMARK  195  A    between atoms: _497  and  _498
REMARK  196  A    between atoms: _497  and  _500
REMARK  197  A    between atoms: _500  and  _501
REMARK  198  A    between atoms: _504  and  _506
REMARK  199  A    between atoms: _506  and  _507
REMARK  200  A    between atoms: _506  and  _509
REMARK  201  A    between atoms: _509  and  _510
REMARK  202  A    between atoms: _515  and  _516
REMARK  203  A    between atoms: _518  and  _520
REMARK  204  A    between atoms: _520  and  _521
REMARK  205  A    between atoms: _520  and  _523
REMARK  206  A    between atoms: _523  and  _524
REMARK  207  A    between atoms: _527  and  _529
REMARK  208  A    between atoms: _529  and  _530
REMARK  209  A    between atoms: _529  and  _532
REMARK  210  A    between atoms: _532  and  _533
REMARK  211  A    between atoms: _538  and  _540
REMARK  212  A    between atoms: _540  and  _541
REMARK  213  A    between atoms: _544  and  _546
REMARK  214  A    between atoms: _546  and  _547
REMARK  215  A    between atoms: _546  and  _549
REMARK  216  A    between atoms: _552  and  _554
REMARK  217  A    between atoms: _554  and  _555
REMARK  218  A    between atoms: _558  and  _560
REMARK  219  A    between atoms: _560  and  _561
REMARK  220  A    between atoms: _560  and  _563
REMARK  221  A    between atoms: _563  and  _564
REMARK  222  A    between atoms: _567  and  _569
REMARK  223  A    between atoms: _569  and  _570
REMARK  224  A    between atoms: _569  and  _572
REMARK  225  A    between atoms: _572  and  _573
REMARK  226  A    between atoms: _573  and  _574
REMARK  227  A    between atoms: _574  and  _575
REMARK  228  A    between atoms: _584  and  _586
REMARK  229  A    between atoms: _586  and  _587
REMARK  230  A    between atoms: _586  and  _589
REMARK  231  A    between atoms: _589  and  _590
REMARK  232  A    between atoms: _593  and  _595
REMARK  233  A    between atoms: _595  and  _596
REMARK  234  A    between atoms: _599  and  _601
REMARK  235  A    between atoms: _601  and  _602
REMARK  236  A    between atoms: _605  and  _607
REMARK  237  A    between atoms: _607  and  _608
REMARK  238  A    between atoms: _607  and  _610
REMARK  239  A    between atoms: _610  and  _611
REMARK  240  A    between atoms: _611  and  _612
REMARK                            x       y       z     vdW  Elec       q    Type
REMARK                         _______ _______ _______ _____ _____    ______ ____
ROOT
ATOM      1  O   HOH     1     -41.903 -67.856 -41.809  0.00  0.00    +0.000 OA
ENDROOT
TORSDOF 0
REMARK  Name = ../refined-set-2016/3n76/3n76_pocket.pdb
REMARK  240 active torsions:
REMARK  status: ('A' for Active; 'I' for Inactive)
REMARK    1  A    between atoms: _1  and  _3
REMARK    2  A    between atoms: _3  and  _4
REMARK    3  A    between atoms: _3  and  _6
REMARK    4  A    between atoms: _6  and  _7
REMARK    5  A    between atoms: _12  and  _14
REMARK    6  A    between atoms: _14  and  _15
REMARK    7  A    between atoms: _18  and  _19
REMARK    8  A    between atoms: _24  and  _26
REMARK    9  A    between atoms: _26  and  _27
REMARK   10  A    between atoms: _26  and  _29
REMARK   11  A    between atoms: _29  and  _30
REMARK   12  A    between atoms: _35  and  _37
REMARK   13  A    between atoms: _37  and  _38
REMARK   14  A    between atoms: _37  and  _40
REMARK   15  A    between atoms: _40  and  _41
REMARK   16  A    between atoms: _44  and  _46
REMARK   17  A    between atoms: _46  and  _47
REMARK   18  A    between atoms: _49  and  _51
REMARK   19  A    between atoms: _51  and  _52
REMARK   20  A    between atoms: _51  and  _54
REMARK   21  A    between atoms: _54  and  _55
REMARK   22  A    between atoms: _55  and  _56
REMARK   23  A    between atoms: _56  and  _57
REMARK   24  A    between atoms: _66  and  _68
REMARK   25  A    between atoms: _68  and  _69
REMARK   26  A    between atoms: _68  and  _71
REMARK   27  A    between atoms: _71  and  _72
REMARK   28  A    between atoms: _75  and  _77
REMARK   29  A    between atoms: _77  and  _78
REMARK   30  A    between atoms: _80  and  _82
REMARK   31  A    between atoms: _82  and  _83
REMARK   32  A    between atoms: _82  and  _85
REMARK   33  A    between atoms: _85  and  _86
REMARK   34  A    between atoms: _86  and  _87
REMARK   35  A    between atoms: _87  and  _88
REMARK   36  A    between atoms: _97  and  _99
REMARK   37  A    between atoms: _99  and  _100
REMARK   38  A    between atoms: _99  and  _102
REMARK   39  A    between atoms: _102  and  _103
REMARK   40  A    between atoms: _103  and  _104
REMARK   41  A    between atoms: _104  and  _105
REMARK   42  A    between atoms: _114  and  _116
REMARK   43  A    between atoms: _116  and  _117
REMARK   44  A    between atoms: _116  and  _119
REMARK   45  A    between atoms: _119  and  _120
REMARK   46  A    between atoms: _120  and  _121
REMARK   47  A    between atoms: _125  and  _126
REMARK   48  A    between atoms: _131  and  _133
REMARK   49  A    between atoms: _133  and  _134
REMARK   50  A    between atoms: _133  and  _136
REMARK   51  A    between atoms: _139  and  _141
REMARK   52  A    between atoms: _141  and  _142
REMARK   53  A    between atoms: _141  and  _144
REMARK   54  A    between atoms: _144  and  _145
REMARK   55  A    between atoms: _150  and  _151
REMARK   56  A    between atoms: _153  and  _155
REMARK   57  A    between atoms: _155  and  _156
REMARK   58  A    between atoms: _158  and  _160
REMARK   59  A    between atoms: _160  and  _161
REMARK   60  A    between atoms: _160  and  _163
REMARK   61  A    between atoms: _163  and  _164
REMARK   62  A    between atoms: _167  and  _169
REMARK   63  A    between atoms: _169  and  _170
REMARK   64  A    between atoms: _169  and  _172
REMARK   65  A    between atoms: _172  and  _173
REMARK   66  A    between atoms: _176  and  _178
REMARK   67  A    between atoms: _178  and  _179
REMARK   68  A    between atoms: _178  and  _181
REMARK   69  A    between atoms: _181  and  _182
REMARK   70  A    between atoms: _187  and  _189
REMARK   71  A    between atoms: _189  and  _190
REMARK   72  A    between atoms: _189  and  _192
REMARK   73  A    between atoms: _192  and  _193
REMARK   74  A    between atoms: _193  and  _194
REMARK   75  A    between atoms: _199  and  _201
REMARK   76  A    between atoms: _201  and  _202
REMARK   77  A    between atoms: _201  and  _204
REMARK   78  A    between atoms: _204  and  _205
REMARK   79  A    between atoms: _208  and  _210
REMARK   80  A    between atoms: _210  and  _211
REMARK   81  A    between atoms: _210  and  _213
REMARK   82  A    between atoms: _213  and  _214
REMARK   83  A    between atoms: _217  and  _219
REMARK   84  A    between atoms: _219  and  _220
REMARK   85  A    between atoms: _219  and  _222
REMARK   86  A    between atoms: _222  and  _223
REMARK   87  A    between atoms: _228  and  _230
REMARK   88  A    between atoms: _230  and  _231
REMARK   89  A    between atoms: _234  and  _236
REMARK   90  A    between atoms: _236  and  _237
REMARK   91  A    between atoms: _239  and  _241
REMARK   92  A    between atoms: _241  and  _242
REMARK   93  A    between atoms: _244  and  _246
REMARK   94  A    between atoms: _246  and  _247
REMARK   95  A    between atoms: _246  and  _249
REMARK   96  A    between atoms: _249  and  _250
REMARK   97  A    between atoms: _253  and  _255
REMARK   98  A    between atoms: _255  and  _256
REMARK   99  A    between atoms: _255  and  _258
REMARK  100  A    between atoms: _258  and  _259
REMARK  101  A    between atoms: _262  and  _264
REMARK  102  A    between atoms: _264  and  _265
REMARK  103  A    between atoms: _264  and  _267
REMARK  104  A    between atoms: _267  and  _268
REMARK  105  A    between atoms: _273  and  _275
REMARK  106  A    between atoms: _275  and  _276
REMARK  107  A    between atoms: _275  and  _278
REMARK  108  A    between atoms: _278  and  _279
REMARK  109  A    between atoms: _282  and  _284
REMARK  110  A    between atoms: _284  and  _285
REMARK  111  A    between atoms: _284  and  _287
REMARK  112  A    between atoms: _287  and  _288
REMARK  113  A    between atoms: _288  and  _289
REMARK  114  A    between atoms: _292  and  _294
REMARK  115  A    between atoms: _294  and  _295
REMARK  116  A    between atoms: _294  and  _297
REMARK  117  A    between atoms: _300  and  _302
REMARK  118  A    between atoms: _302  and  _303
REMARK  119  A    between atoms: _302  and  _305
REMARK  120  A    between atoms: _305  and  _306
REMARK  121  A    between atoms: _311  and  _313
REMARK  122  A    between atoms: _313  and  _314
REMARK  123  A    between atoms: _313  and  _316
REMARK  124  A    between atoms: _316  and  _317
REMARK  125  A    between atoms: _320  and  _322
REMARK  126  A    between atoms: _322  and  _323
REMARK  127  A    between atoms: _322  and  _325
REMARK  128  A    between atoms: _325  and  _326
REMARK  129  A    between atoms: _328  and  _330
REMARK  130  A    between atoms: _330  and  _331
REMARK  131  A    between atoms: _330  and  _333
REMARK  132  A    between atoms: _333  and  _334
REMARK  133  A    between atoms: _339  and  _341
REMARK  134  A    between atoms: _341  and  _342
REMARK  135  A    between atoms: _341  and  _344
REMARK  136  A    between atoms: _347  and  _349
REMARK  137  A    between atoms: _349  and  _350
REMARK  138  A    between atoms: _349  and  _352
REMARK  139  A    between atoms: _352  and  _353
REMARK  140  A    between atoms: _358  and  _360
REMARK  141  A    between atoms: _360  and  _361
REMARK  142  A    between atoms: _360  and  _363
REMARK  143  A    between atoms: _363  and  _364
REMARK  144  A    between atoms: _364  and  _365
REMARK  145  A    between atoms: _365  and  _366
REMARK  146  A    between atoms: _375  and  _377
REMARK  147  A    between atoms: _377  and  _378
REMARK  148  A    between atoms: _377  and  _380
REMARK  149  A    between atoms: _380  and  _381
REMARK  150  A    between atoms: _381  and  _382
REMARK  151  A    between atoms: _385  and  _387
REMARK  152  A    between atoms: _387  and  _388
REMARK  153  A    between atoms: _387  and  _390
REMARK  154  A    between atoms: _390  and  _391
REMARK  155  A    between atoms: _397  and  _399
REMARK  156  A    between atoms: _399  and  _400
REMARK  157  A    between atoms: _399  and  _402
REMARK  158  A    between atoms: _402  and  _403
REMARK  159  A    between atoms: _403  and  _404
REMARK  160  A    between atoms: _404  and  _405
REMARK  161  A    between atoms: _414  and  _416
REMARK  162  A    between atoms: _416  and  _417
REMARK  163  A    between atoms: _416  and  _419
REMARK  164  A    between atoms: _419  and  _420
REMARK  165  A    between atoms: _420  and  _421
REMARK  166  A    between atoms: _421  and  _422
REMARK  167  A    between atoms: _431  and  _433
REMARK  168  A    between atoms: _433  and  _434
REMARK  169  A    between atoms: _433  and  _436
REMARK  170  A    between atoms: _436  and  _437
REMARK  171  A    between atoms: _442  and  _444
REMARK  172  A    between atoms: _444  and  _445
REMARK  173  A    between atoms: _444  and  _447
REMARK  174  A    between atoms: _447  and  _448
REMARK  175  A    between atoms: _450  and  _452
REMARK  176  A    between atoms: _452  and  _453
REMARK  177  A    between atoms: _452  and  _455
REMARK  178  A    between atoms: _455  and  _456
REMARK  179  A    between atoms: _459  and  _461
REMARK  180  A    between atoms: _461  and  _462
REMARK  181  A    between atoms: _461  and  _464
REMARK  182  A    between atoms: _464  and  _465
REMARK  183  A    between atoms: _468  and  _470
REMARK  184  A    between atoms: _470  and  _471
REMARK  185  A    between atoms: _470  and  _473
REMARK  186  A    between atoms: _476  and  _478
REMARK  187  A    between atoms: _478  and  _479
REMARK  188  A    between atoms: _481  and  _483
REMARK  189  A    between atoms: _483  and  _484
REMARK  190  A    between atoms: _483  and  _486
REMARK  191  A    between atoms: _486  and  _487
REMARK  192  A    between atoms: _490  and  _492
REMARK  193  A    between atoms: _492  and  _493
REMARK  194  A    between atoms: _495  and  _497
REMARK  195  A    between atoms: _497  and  _498
REMARK  196  A    between atoms: _497  and  _500
REMARK  197  A    between atoms: _500  and  _501
REMARK  198  A    between atoms: _504  and  _506
REMARK  199  A    between atoms: _506  and  _507
REMARK  200  A    between atoms: _506  and  _509
REMARK  201  A    between atoms: _509  and  _510
REMARK  202  A    between atoms: _515  and  _516
REMARK  203  A    between atoms: _518  and  _520
REMARK  204  A    between atoms: _520  and  _521
REMARK  205  A    between atoms: _520  and  _523
REMARK  206  A    between atoms: _523  and  _524
REMARK  207  A    between atoms: _527  and  _529
REMARK  208  A    between atoms: _529  and  _530
REMARK  209  A    between atoms: _529  and  _532
REMARK  210  A    between atoms: _532  and  _533
REMARK  211  A    between atoms: _538  and  _540
REMARK  212  A    between atoms: _540  and  _541
REMARK  213  A    between atoms: _544  and  _546
REMARK  214  A    between atoms: _546  and  _547
REMARK  215  A    between atoms: _546  and  _549
REMARK  216  A    between atoms: _552  and  _554
REMARK  217  A    between atoms: _554  and  _555
REMARK  218  A    between atoms: _558  and  _560
REMARK  219  A    between atoms: _560  and  _561
REMARK  220  A    between atoms: _560  and  _563
REMARK  221  A    between atoms: _563  and  _564
REMARK  222  A    between atoms: _567  and  _569
REMARK  223  A    between atoms: _569  and  _570
REMARK  224  A    between atoms: _569  and  _572
REMARK  225  A    between atoms: _572  and  _573
REMARK  226  A    between atoms: _573  and  _574
REMARK  227  A    between atoms: _574  and  _575
REMARK  228  A    between atoms: _584  and  _586
REMARK  229  A    between atoms: _586  and  _587
REMARK  230  A    between atoms: _586  and  _589
REMARK  231  A    between atoms: _589  and  _590
REMARK  232  A    between atoms: _593  and  _595
REMARK  233  A    between atoms: _595  and  _596
REMARK  234  A    between atoms: _599  and  _601
REMARK  235  A    between atoms: _601  and  _602
REMARK  236  A    between atoms: _605  and  _607
REMARK  237  A    between atoms: _607  and  _608
REMARK  238  A    between atoms: _607  and  _610
REMARK  239  A    between atoms: _610  and  _611
REMARK  240  A    between atoms: _611  and  _612
REMARK                            x       y       z     vdW  Elec       q    Type
REMARK                         _______ _______ _______ _____ _____    ______ ____
ROOT
ATOM      1  O   HOH     1     -42.321 -63.625 -46.047  0.00  0.00    +0.000 OA
ENDROOT
TORSDOF 0
REMARK  Name = ../refined-set-2016/3n76/3n76_pocket.pdb
REMARK  240 active torsions:
REMARK  status: ('A' for Active; 'I' for Inactive)
REMARK    1  A    between atoms: _1  and  _3
REMARK    2  A    between atoms: _3  and  _4
REMARK    3  A    between atoms: _3  and  _6
REMARK    4  A    between atoms: _6  and  _7
REMARK    5  A    between atoms: _12  and  _14
REMARK    6  A    between atoms: _14  and  _15
REMARK    7  A    between atoms: _18  and  _19
REMARK    8  A    between atoms: _24  and  _26
REMARK    9  A    between atoms: _26  and  _27
REMARK   10  A    between atoms: _26  and  _29
REMARK   11  A    between atoms: _29  and  _30
REMARK   12  A    between atoms: _35  and  _37
REMARK   13  A    between atoms: _37  and  _38
REMARK   14  A    between atoms: _37  and  _40
REMARK   15  A    between atoms: _40  and  _41
REMARK   16  A    between atoms: _44  and  _46
REMARK   17  A    between atoms: _46  and  _47
REMARK   18  A    between atoms: _49  and  _51
REMARK   19  A    between atoms: _51  and  _52
REMARK   20  A    between atoms: _51  and  _54
REMARK   21  A    between atoms: _54  and  _55
REMARK   22  A    between atoms: _55  and  _56
REMARK   23  A    between atoms: _56  and  _57
REMARK   24  A    between atoms: _66  and  _68
REMARK   25  A    between atoms: _68  and  _69
REMARK   26  A    between atoms: _68  and  _71
REMARK   27  A    between atoms: _71  and  _72
REMARK   28  A    between atoms: _75  and  _77
REMARK   29  A    between atoms: _77  and  _78
REMARK   30  A    between atoms: _80  and  _82
REMARK   31  A    between atoms: _82  and  _83
REMARK   32  A    between atoms: _82  and  _85
REMARK   33  A    between atoms: _85  and  _86
REMARK   34  A    between atoms: _86  and  _87
REMARK   35  A    between atoms: _87  and  _88
REMARK   36  A    between atoms: _97  and  _99
REMARK   37  A    between atoms: _99  and  _100
REMARK   38  A    between atoms: _99  and  _102
REMARK   39  A    between atoms: _102  and  _103
REMARK   40  A    between atoms: _103  and  _104
REMARK   41  A    between atoms: _104  and  _105
REMARK   42  A    between atoms: _114  and  _116
REMARK   43  A    between atoms: _116  and  _117
REMARK   44  A    between atoms: _116  and  _119
REMARK   45  A    between atoms: _119  and  _120
REMARK   46  A    between atoms: _120  and  _121
REMARK   47  A    between atoms: _125  and  _126
REMARK   48  A    between atoms: _131  and  _133
REMARK   49  A    between atoms: _133  and  _134
REMARK   50  A    between atoms: _133  and  _136
REMARK   51  A    between atoms: _139  and  _141
REMARK   52  A    between atoms: _141  and  _142
REMARK   53  A    between atoms: _141  and  _144
REMARK   54  A    between atoms: _144  and  _145
REMARK   55  A    between atoms: _150  and  _151
REMARK   56  A    between atoms: _153  and  _155
REMARK   57  A    between atoms: _155  and  _156
REMARK   58  A    between atoms: _158  and  _160
REMARK   59  A    between atoms: _160  and  _161
REMARK   60  A    between atoms: _160  and  _163
REMARK   61  A    between atoms: _163  and  _164
REMARK   62  A    between atoms: _167  and  _169
REMARK   63  A    between atoms: _169  and  _170
REMARK   64  A    between atoms: _169  and  _172
REMARK   65  A    between atoms: _172  and  _173
REMARK   66  A    between atoms: _176  and  _178
REMARK   67  A    between atoms: _178  and  _179
REMARK   68  A    between atoms: _178  and  _181
REMARK   69  A    between atoms: _181  and  _182
REMARK   70  A    between atoms: _187  and  _189
REMARK   71  A    between atoms: _189  and  _190
REMARK   72  A    between atoms: _189  and  _192
REMARK   73  A    between atoms: _192  and  _193
REMARK   74  A    between atoms: _193  and  _194
REMARK   75  A    between atoms: _199  and  _201
REMARK   76  A    between atoms: _201  and  _202
REMARK   77  A    between atoms: _201  and  _204
REMARK   78  A    between atoms: _204  and  _205
REMARK   79  A    between atoms: _208  and  _210
REMARK   80  A    between atoms: _210  and  _211
REMARK   81  A    between atoms: _210  and  _213
REMARK   82  A    between atoms: _213  and  _214
REMARK   83  A    between atoms: _217  and  _219
REMARK   84  A    between atoms: _219  and  _220
REMARK   85  A    between atoms: _219  and  _222
REMARK   86  A    between atoms: _222  and  _223
REMARK   87  A    between atoms: _228  and  _230
REMARK   88  A    between atoms: _230  and  _231
REMARK   89  A    between atoms: _234  and  _236
REMARK   90  A    between atoms: _236  and  _237
REMARK   91  A    between atoms: _239  and  _241
REMARK   92  A    between atoms: _241  and  _242
REMARK   93  A    between atoms: _244  and  _246
REMARK   94  A    between atoms: _246  and  _247
REMARK   95  A    between atoms: _246  and  _249
REMARK   96  A    between atoms: _249  and  _250
REMARK   97  A    between atoms: _253  and  _255
REMARK   98  A    between atoms: _255  and  _256
REMARK   99  A    between atoms: _255  and  _258
REMARK  100  A    between atoms: _258  and  _259
REMARK  101  A    between atoms: _262  and  _264
REMARK  102  A    between atoms: _264  and  _265
REMARK  103  A    between atoms: _264  and  _267
REMARK  104  A    between atoms: _267  and  _268
REMARK  105  A    between atoms: _273  and  _275
REMARK  106  A    between atoms: _275  and  _276
REMARK  107  A    between atoms: _275  and  _278
REMARK  108  A    between atoms: _278  and  _279
REMARK  109  A    between atoms: _282  and  _284
REMARK  110  A    between atoms: _284  and  _285
REMARK  111  A    between atoms: _284  and  _287
REMARK  112  A    between atoms: _287  and  _288
REMARK  113  A    between atoms: _288  and  _289
REMARK  114  A    between atoms: _292  and  _294
REMARK  115  A    between atoms: _294  and  _295
REMARK  116  A    between atoms: _294  and  _297
REMARK  117  A    between atoms: _300  and  _302
REMARK  118  A    between atoms: _302  and  _303
REMARK  119  A    between atoms: _302  and  _305
REMARK  120  A    between atoms: _305  and  _306
REMARK  121  A    between atoms: _311  and  _313
REMARK  122  A    between atoms: _313  and  _314
REMARK  123  A    between atoms: _313  and  _316
REMARK  124  A    between atoms: _316  and  _317
REMARK  125  A    between atoms: _320  and  _322
REMARK  126  A    between atoms: _322  and  _323
REMARK  127  A    between atoms: _322  and  _325
REMARK  128  A    between atoms: _325  and  _326
REMARK  129  A    between atoms: _328  and  _330
REMARK  130  A    between atoms: _330  and  _331
REMARK  131  A    between atoms: _330  and  _333
REMARK  132  A    between atoms: _333  and  _334
REMARK  133  A    between atoms: _339  and  _341
REMARK  134  A    between atoms: _341  and  _342
REMARK  135  A    between atoms: _341  and  _344
REMARK  136  A    between atoms: _347  and  _349
REMARK  137  A    between atoms: _349  and  _350
REMARK  138  A    between atoms: _349  and  _352
REMARK  139  A    between atoms: _352  and  _353
REMARK  140  A    between atoms: _358  and  _360
REMARK  141  A    between atoms: _360  and  _361
REMARK  142  A    between atoms: _360  and  _363
REMARK  143  A    between atoms: _363  and  _364
REMARK  144  A    between atoms: _364  and  _365
REMARK  145  A    between atoms: _365  and  _366
REMARK  146  A    between atoms: _375  and  _377
REMARK  147  A    between atoms: _377  and  _378
REMARK  148  A    between atoms: _377  and  _380
REMARK  149  A    between atoms: _380  and  _381
REMARK  150  A    between atoms: _381  and  _382
REMARK  151  A    between atoms: _385  and  _387
REMARK  152  A    between atoms: _387  and  _388
REMARK  153  A    between atoms: _387  and  _390
REMARK  154  A    between atoms: _390  and  _391
REMARK  155  A    between atoms: _397  and  _399
REMARK  156  A    between atoms: _399  and  _400
REMARK  157  A    between atoms: _399  and  _402
REMARK  158  A    between atoms: _402  and  _403
REMARK  159  A    between atoms: _403  and  _404
REMARK  160  A    between atoms: _404  and  _405
REMARK  161  A    between atoms: _414  and  _416
REMARK  162  A    between atoms: _416  and  _417
REMARK  163  A    between atoms: _416  and  _419
REMARK  164  A    between atoms: _419  and  _420
REMARK  165  A    between atoms: _420  and  _421
REMARK  166  A    between atoms: _421  and  _422
REMARK  167  A    between atoms: _431  and  _433
REMARK  168  A    between atoms: _433  and  _434
REMARK  169  A    between atoms: _433  and  _436
REMARK  170  A    between atoms: _436  and  _437
REMARK  171  A    between atoms: _442  and  _444
REMARK  172  A    between atoms: _444  and  _445
REMARK  173  A    between atoms: _444  and  _447
REMARK  174  A    between atoms: _447  and  _448
REMARK  175  A    between atoms: _450  and  _452
REMARK  176  A    between atoms: _452  and  _453
REMARK  177  A    between atoms: _452  and  _455
REMARK  178  A    between atoms: _455  and  _456
REMARK  179  A    between atoms: _459  and  _461
REMARK  180  A    between atoms: _461  and  _462
REMARK  181  A    between atoms: _461  and  _464
REMARK  182  A    between atoms: _464  and  _465
REMARK  183  A    between atoms: _468  and  _470
REMARK  184  A    between atoms: _470  and  _471
REMARK  185  A    between atoms: _470  and  _473
REMARK  186  A    between atoms: _476  and  _478
REMARK  187  A    between atoms: _478  and  _479
REMARK  188  A    between atoms: _481  and  _483
REMARK  189  A    between atoms: _483  and  _484
REMARK  190  A    between atoms: _483  and  _486
REMARK  191  A    between atoms: _486  and  _487
REMARK  192  A    between atoms: _490  and  _492
REMARK  193  A    between atoms: _492  and  _493
REMARK  194  A    between atoms: _495  and  _497
REMARK  195  A    between atoms: _497  and  _498
REMARK  196  A    between atoms: _497  and  _500
REMARK  197  A    between atoms: _500  and  _501
REMARK  198  A    between atoms: _504  and  _506
REMARK  199  A    between atoms: _506  and  _507
REMARK  200  A    between atoms: _506  and  _509
REMARK  201  A    between atoms: _509  and  _510
REMARK  202  A    between atoms: _515  and  _516
REMARK  203  A    between atoms: _518  and  _520
REMARK  204  A    between atoms: _520  and  _521
REMARK  205  A    between atoms: _520  and  _523
REMARK  206  A    between atoms: _523  and  _524
REMARK  207  A    between atoms: _527  and  _529
REMARK  208  A    between atoms: _529  and  _530
REMARK  209  A    between atoms: _529  and  _532
REMARK  210  A    between atoms: _532  and  _533
REMARK  211  A    between atoms: _538  and  _540
REMARK  212  A    between atoms: _540  and  _541
REMARK  213  A    between atoms: _544  and  _546
REMARK  214  A    between atoms: _546  and  _547
REMARK  215  A    between atoms: _546  and  _549
REMARK  216  A    between atoms: _552  and  _554
REMARK  217  A    between atoms: _554  and  _555
REMARK  218  A    between atoms: _558  and  _560
REMARK  219  A    between atoms: _560  and  _561
REMARK  220  A    between atoms: _560  and  _563
REMARK  221  A    between atoms: _563  and  _564
REMARK  222  A    between atoms: _567  and  _569
REMARK  223  A    between atoms: _569  and  _570
REMARK  224  A    between atoms: _569  and  _572
REMARK  225  A    between atoms: _572  and  _573
REMARK  226  A    between atoms: _573  and  _574
REMARK  227  A    between atoms: _574  and  _575
REMARK  228  A    between atoms: _584  and  _586
REMARK  229  A    between atoms: _586  and  _587
REMARK  230  A    between atoms: _586  and  _589
REMARK  231  A    between atoms: _589  and  _590
REMARK  232  A    between atoms: _593  and  _595
REMARK  233  A    between atoms: _595  and  _596
REMARK  234  A    between atoms: _599  and  _601
REMARK  235  A    between atoms: _601  and  _602
REMARK  236  A    between atoms: _605  and  _607
REMARK  237  A    between atoms: _607  and  _608
REMARK  238  A    between atoms: _607  and  _610
REMARK  239  A    between atoms: _610  and  _611
REMARK  240  A    between atoms: _611  and  _612
REMARK                            x       y       z     vdW  Elec       q    Type
REMARK                         _______ _______ _______ _____ _____    ______ ____
ROOT
ATOM      1  O   HOH     1     -32.131 -63.917 -56.666  0.00  0.00    +0.000 OA
ENDROOT
TORSDOF 0
REMARK  Name = ../refined-set-2016/3n76/3n76_pocket.pdb
REMARK  240 active torsions:
REMARK  status: ('A' for Active; 'I' for Inactive)
REMARK    1  A    between atoms: _1  and  _3
REMARK    2  A    between atoms: _3  and  _4
REMARK    3  A    between atoms: _3  and  _6
REMARK    4  A    between atoms: _6  and  _7
REMARK    5  A    between atoms: _12  and  _14
REMARK    6  A    between atoms: _14  and  _15
REMARK    7  A    between atoms: _18  and  _19
REMARK    8  A    between atoms: _24  and  _26
REMARK    9  A    between atoms: _26  and  _27
REMARK   10  A    between atoms: _26  and  _29
REMARK   11  A    between atoms: _29  and  _30
REMARK   12  A    between atoms: _35  and  _37
REMARK   13  A    between atoms: _37  and  _38
REMARK   14  A    between atoms: _37  and  _40
REMARK   15  A    between atoms: _40  and  _41
REMARK   16  A    between atoms: _44  and  _46
REMARK   17  A    between atoms: _46  and  _47
REMARK   18  A    between atoms: _49  and  _51
REMARK   19  A    between atoms: _51  and  _52
REMARK   20  A    between atoms: _51  and  _54
REMARK   21  A    between atoms: _54  and  _55
REMARK   22  A    between atoms: _55  and  _56
REMARK   23  A    between atoms: _56  and  _57
REMARK   24  A    between atoms: _66  and  _68
REMARK   25  A    between atoms: _68  and  _69
REMARK   26  A    between atoms: _68  and  _71
REMARK   27  A    between atoms: _71  and  _72
REMARK   28  A    between atoms: _75  and  _77
REMARK   29  A    between atoms: _77  and  _78
REMARK   30  A    between atoms: _80  and  _82
REMARK   31  A    between atoms: _82  and  _83
REMARK   32  A    between atoms: _82  and  _85
REMARK   33  A    between atoms: _85  and  _86
REMARK   34  A    between atoms: _86  and  _87
REMARK   35  A    between atoms: _87  and  _88
REMARK   36  A    between atoms: _97  and  _99
REMARK   37  A    between atoms: _99  and  _100
REMARK   38  A    between atoms: _99  and  _102
REMARK   39  A    between atoms: _102  and  _103
REMARK   40  A    between atoms: _103  and  _104
REMARK   41  A    between atoms: _104  and  _105
REMARK   42  A    between atoms: _114  and  _116
REMARK   43  A    between atoms: _116  and  _117
REMARK   44  A    between atoms: _116  and  _119
REMARK   45  A    between atoms: _119  and  _120
REMARK   46  A    between atoms: _120  and  _121
REMARK   47  A    between atoms: _125  and  _126
REMARK   48  A    between atoms: _131  and  _133
REMARK   49  A    between atoms: _133  and  _134
REMARK   50  A    between atoms: _133  and  _136
REMARK   51  A    between atoms: _139  and  _141
REMARK   52  A    between atoms: _141  and  _142
REMARK   53  A    between atoms: _141  and  _144
REMARK   54  A    between atoms: _144  and  _145
REMARK   55  A    between atoms: _150  and  _151
REMARK   56  A    between atoms: _153  and  _155
REMARK   57  A    between atoms: _155  and  _156
REMARK   58  A    between atoms: _158  and  _160
REMARK   59  A    between atoms: _160  and  _161
REMARK   60  A    between atoms: _160  and  _163
REMARK   61  A    between atoms: _163  and  _164
REMARK   62  A    between atoms: _167  and  _169
REMARK   63  A    between atoms: _169  and  _170
REMARK   64  A    between atoms: _169  and  _172
REMARK   65  A    between atoms: _172  and  _173
REMARK   66  A    between atoms: _176  and  _178
REMARK   67  A    between atoms: _178  and  _179
REMARK   68  A    between atoms: _178  and  _181
REMARK   69  A    between atoms: _181  and  _182
REMARK   70  A    between atoms: _187  and  _189
REMARK   71  A    between atoms: _189  and  _190
REMARK   72  A    between atoms: _189  and  _192
REMARK   73  A    between atoms: _192  and  _193
REMARK   74  A    between atoms: _193  and  _194
REMARK   75  A    between atoms: _199  and  _201
REMARK   76  A    between atoms: _201  and  _202
REMARK   77  A    between atoms: _201  and  _204
REMARK   78  A    between atoms: _204  and  _205
REMARK   79  A    between atoms: _208  and  _210
REMARK   80  A    between atoms: _210  and  _211
REMARK   81  A    between atoms: _210  and  _213
REMARK   82  A    between atoms: _213  and  _214
REMARK   83  A    between atoms: _217  and  _219
REMARK   84  A    between atoms: _219  and  _220
REMARK   85  A    between atoms: _219  and  _222
REMARK   86  A    between atoms: _222  and  _223
REMARK   87  A    between atoms: _228  and  _230
REMARK   88  A    between atoms: _230  and  _231
REMARK   89  A    between atoms: _234  and  _236
REMARK   90  A    between atoms: _236  and  _237
REMARK   91  A    between atoms: _239  and  _241
REMARK   92  A    between atoms: _241  and  _242
REMARK   93  A    between atoms: _244  and  _246
REMARK   94  A    between atoms: _246  and  _247
REMARK   95  A    between atoms: _246  and  _249
REMARK   96  A    between atoms: _249  and  _250
REMARK   97  A    between atoms: _253  and  _255
REMARK   98  A    between atoms: _255  and  _256
REMARK   99  A    between atoms: _255  and  _258
REMARK  100  A    between atoms: _258  and  _259
REMARK  101  A    between atoms: _262  and  _264
REMARK  102  A    between atoms: _264  and  _265
REMARK  103  A    between atoms: _264  and  _267
REMARK  104  A    between atoms: _267  and  _268
REMARK  105  A    between atoms: _273  and  _275
REMARK  106  A    between atoms: _275  and  _276
REMARK  107  A    between atoms: _275  and  _278
REMARK  108  A    between atoms: _278  and  _279
REMARK  109  A    between atoms: _282  and  _284
REMARK  110  A    between atoms: _284  and  _285
REMARK  111  A    between atoms: _284  and  _287
REMARK  112  A    between atoms: _287  and  _288
REMARK  113  A    between atoms: _288  and  _289
REMARK  114  A    between atoms: _292  and  _294
REMARK  115  A    between atoms: _294  and  _295
REMARK  116  A    between atoms: _294  and  _297
REMARK  117  A    between atoms: _300  and  _302
REMARK  118  A    between atoms: _302  and  _303
REMARK  119  A    between atoms: _302  and  _305
REMARK  120  A    between atoms: _305  and  _306
REMARK  121  A    between atoms: _311  and  _313
REMARK  122  A    between atoms: _313  and  _314
REMARK  123  A    between atoms: _313  and  _316
REMARK  124  A    between atoms: _316  and  _317
REMARK  125  A    between atoms: _320  and  _322
REMARK  126  A    between atoms: _322  and  _323
REMARK  127  A    between atoms: _322  and  _325
REMARK  128  A    between atoms: _325  and  _326
REMARK  129  A    between atoms: _328  and  _330
REMARK  130  A    between atoms: _330  and  _331
REMARK  131  A    between atoms: _330  and  _333
REMARK  132  A    between atoms: _333  and  _334
REMARK  133  A    between atoms: _339  and  _341
REMARK  134  A    between atoms: _341  and  _342
REMARK  135  A    between atoms: _341  and  _344
REMARK  136  A    between atoms: _347  and  _349
REMARK  137  A    between atoms: _349  and  _350
REMARK  138  A    between atoms: _349  and  _352
REMARK  139  A    between atoms: _352  and  _353
REMARK  140  A    between atoms: _358  and  _360
REMARK  141  A    between atoms: _360  and  _361
REMARK  142  A    between atoms: _360  and  _363
REMARK  143  A    between atoms: _363  and  _364
REMARK  144  A    between atoms: _364  and  _365
REMARK  145  A    between atoms: _365  and  _366
REMARK  146  A    between atoms: _375  and  _377
REMARK  147  A    between atoms: _377  and  _378
REMARK  148  A    between atoms: _377  and  _380
REMARK  149  A    between atoms: _380  and  _381
REMARK  150  A    between atoms: _381  and  _382
REMARK  151  A    between atoms: _385  and  _387
REMARK  152  A    between atoms: _387  and  _388
REMARK  153  A    between atoms: _387  and  _390
REMARK  154  A    between atoms: _390  and  _391
REMARK  155  A    between atoms: _397  and  _399
REMARK  156  A    between atoms: _399  and  _400
REMARK  157  A    between atoms: _399  and  _402
REMARK  158  A    between atoms: _402  and  _403
REMARK  159  A    between atoms: _403  and  _404
REMARK  160  A    between atoms: _404  and  _405
REMARK  161  A    between atoms: _414  and  _416
REMARK  162  A    between atoms: _416  and  _417
REMARK  163  A    between atoms: _416  and  _419
REMARK  164  A    between atoms: _419  and  _420
REMARK  165  A    between atoms: _420  and  _421
REMARK  166  A    between atoms: _421  and  _422
REMARK  167  A    between atoms: _431  and  _433
REMARK  168  A    between atoms: _433  and  _434
REMARK  169  A    between atoms: _433  and  _436
REMARK  170  A    between atoms: _436  and  _437
REMARK  171  A    between atoms: _442  and  _444
REMARK  172  A    between atoms: _444  and  _445
REMARK  173  A    between atoms: _444  and  _447
REMARK  174  A    between atoms: _447  and  _448
REMARK  175  A    between atoms: _450  and  _452
REMARK  176  A    between atoms: _452  and  _453
REMARK  177  A    between atoms: _452  and  _455
REMARK  178  A    between atoms: _455  and  _456
REMARK  179  A    between atoms: _459  and  _461
REMARK  180  A    between atoms: _461  and  _462
REMARK  181  A    between atoms: _461  and  _464
REMARK  182  A    between atoms: _464  and  _465
REMARK  183  A    between atoms: _468  and  _470
REMARK  184  A    between atoms: _470  and  _471
REMARK  185  A    between atoms: _470  and  _473
REMARK  186  A    between atoms: _476  and  _478
REMARK  187  A    between atoms: _478  and  _479
REMARK  188  A    between atoms: _481  and  _483
REMARK  189  A    between atoms: _483  and  _484
REMARK  190  A    between atoms: _483  and  _486
REMARK  191  A    between atoms: _486  and  _487
REMARK  192  A    between atoms: _490  and  _492
REMARK  193  A    between atoms: _492  and  _493
REMARK  194  A    between atoms: _495  and  _497
REMARK  195  A    between atoms: _497  and  _498
REMARK  196  A    between atoms: _497  and  _500
REMARK  197  A    between atoms: _500  and  _501
REMARK  198  A    between atoms: _504  and  _506
REMARK  199  A    between atoms: _506  and  _507
REMARK  200  A    between atoms: _506  and  _509
REMARK  201  A    between atoms: _509  and  _510
REMARK  202  A    between atoms: _515  and  _516
REMARK  203  A    between atoms: _518  and  _520
REMARK  204  A    between atoms: _520  and  _521
REMARK  205  A    between atoms: _520  and  _523
REMARK  206  A    between atoms: _523  and  _524
REMARK  207  A    between atoms: _527  and  _529
REMARK  208  A    between atoms: _529  and  _530
REMARK  209  A    between atoms: _529  and  _532
REMARK  210  A    between atoms: _532  and  _533
REMARK  211  A    between atoms: _538  and  _540
REMARK  212  A    between atoms: _540  and  _541
REMARK  213  A    between atoms: _544  and  _546
REMARK  214  A    between atoms: _546  and  _547
REMARK  215  A    between atoms: _546  and  _549
REMARK  216  A    between atoms: _552  and  _554
REMARK  217  A    between atoms: _554  and  _555
REMARK  218  A    between atoms: _558  and  _560
REMARK  219  A    between atoms: _560  and  _561
REMARK  220  A    between atoms: _560  and  _563
REMARK  221  A    between atoms: _563  and  _564
REMARK  222  A    between atoms: _567  and  _569
REMARK  223  A    between atoms: _569  and  _570
REMARK  224  A    between atoms: _569  and  _572
REMARK  225  A    between atoms: _572  and  _573
REMARK  226  A    between atoms: _573  and  _574
REMARK  227  A    between atoms: _574  and  _575
REMARK  228  A    between atoms: _584  and  _586
REMARK  229  A    between atoms: _586  and  _587
REMARK  230  A    between atoms: _586  and  _589
REMARK  231  A    between atoms: _589  and  _590
REMARK  232  A    between atoms: _593  and  _595
REMARK  233  A    between atoms: _595  and  _596
REMARK  234  A    between atoms: _599  and  _601
REMARK  235  A    between atoms: _601  and  _602
REMARK  236  A    between atoms: _605  and  _607
REMARK  237  A    between atoms: _607  and  _608
REMARK  238  A    between atoms: _607  and  _610
REMARK  239  A    between atoms: _610  and  _611
REMARK  240  A    between atoms: _611  and  _612
REMARK                            x       y       z     vdW  Elec       q    Type
REMARK                         _______ _______ _______ _____ _____    ______ ____
ROOT
ATOM      1  O   HOH     1     -46.547 -64.031 -45.309  0.00  0.00    +0.000 OA
ENDROOT
TORSDOF 0
REMARK  Name = ../refined-set-2016/3n76/3n76_pocket.pdb
REMARK  240 active torsions:
REMARK  status: ('A' for Active; 'I' for Inactive)
REMARK    1  A    between atoms: _1  and  _3
REMARK    2  A    between atoms: _3  and  _4
REMARK    3  A    between atoms: _3  and  _6
REMARK    4  A    between atoms: _6  and  _7
REMARK    5  A    between atoms: _12  and  _14
REMARK    6  A    between atoms: _14  and  _15
REMARK    7  A    between atoms: _18  and  _19
REMARK    8  A    between atoms: _24  and  _26
REMARK    9  A    between atoms: _26  and  _27
REMARK   10  A    between atoms: _26  and  _29
REMARK   11  A    between atoms: _29  and  _30
REMARK   12  A    between atoms: _35  and  _37
REMARK   13  A    between atoms: _37  and  _38
REMARK   14  A    between atoms: _37  and  _40
REMARK   15  A    between atoms: _40  and  _41
REMARK   16  A    between atoms: _44  and  _46
REMARK   17  A    between atoms: _46  and  _47
REMARK   18  A    between atoms: _49  and  _51
REMARK   19  A    between atoms: _51  and  _52
REMARK   20  A    between atoms: _51  and  _54
REMARK   21  A    between atoms: _54  and  _55
REMARK   22  A    between atoms: _55  and  _56
REMARK   23  A    between atoms: _56  and  _57
REMARK   24  A    between atoms: _66  and  _68
REMARK   25  A    between atoms: _68  and  _69
REMARK   26  A    between atoms: _68  and  _71
REMARK   27  A    between atoms: _71  and  _72
REMARK   28  A    between atoms: _75  and  _77
REMARK   29  A    between atoms: _77  and  _78
REMARK   30  A    between atoms: _80  and  _82
REMARK   31  A    between atoms: _82  and  _83
REMARK   32  A    between atoms: _82  and  _85
REMARK   33  A    between atoms: _85  and  _86
REMARK   34  A    between atoms: _86  and  _87
REMARK   35  A    between atoms: _87  and  _88
REMARK   36  A    between atoms: _97  and  _99
REMARK   37  A    between atoms: _99  and  _100
REMARK   38  A    between atoms: _99  and  _102
REMARK   39  A    between atoms: _102  and  _103
REMARK   40  A    between atoms: _103  and  _104
REMARK   41  A    between atoms: _104  and  _105
REMARK   42  A    between atoms: _114  and  _116
REMARK   43  A    between atoms: _116  and  _117
REMARK   44  A    between atoms: _116  and  _119
REMARK   45  A    between atoms: _119  and  _120
REMARK   46  A    between atoms: _120  and  _121
REMARK   47  A    between atoms: _125  and  _126
REMARK   48  A    between atoms: _131  and  _133
REMARK   49  A    between atoms: _133  and  _134
REMARK   50  A    between atoms: _133  and  _136
REMARK   51  A    between atoms: _139  and  _141
REMARK   52  A    between atoms: _141  and  _142
REMARK   53  A    between atoms: _141  and  _144
REMARK   54  A    between atoms: _144  and  _145
REMARK   55  A    between atoms: _150  and  _151
REMARK   56  A    between atoms: _153  and  _155
REMARK   57  A    between atoms: _155  and  _156
REMARK   58  A    between atoms: _158  and  _160
REMARK   59  A    between atoms: _160  and  _161
REMARK   60  A    between atoms: _160  and  _163
REMARK   61  A    between atoms: _163  and  _164
REMARK   62  A    between atoms: _167  and  _169
REMARK   63  A    between atoms: _169  and  _170
REMARK   64  A    between atoms: _169  and  _172
REMARK   65  A    between atoms: _172  and  _173
REMARK   66  A    between atoms: _176  and  _178
REMARK   67  A    between atoms: _178  and  _179
REMARK   68  A    between atoms: _178  and  _181
REMARK   69  A    between atoms: _181  and  _182
REMARK   70  A    between atoms: _187  and  _189
REMARK   71  A    between atoms: _189  and  _190
REMARK   72  A    between atoms: _189  and  _192
REMARK   73  A    between atoms: _192  and  _193
REMARK   74  A    between atoms: _193  and  _194
REMARK   75  A    between atoms: _199  and  _201
REMARK   76  A    between atoms: _201  and  _202
REMARK   77  A    between atoms: _201  and  _204
REMARK   78  A    between atoms: _204  and  _205
REMARK   79  A    between atoms: _208  and  _210
REMARK   80  A    between atoms: _210  and  _211
REMARK   81  A    between atoms: _210  and  _213
REMARK   82  A    between atoms: _213  and  _214
REMARK   83  A    between atoms: _217  and  _219
REMARK   84  A    between atoms: _219  and  _220
REMARK   85  A    between atoms: _219  and  _222
REMARK   86  A    between atoms: _222  and  _223
REMARK   87  A    between atoms: _228  and  _230
REMARK   88  A    between atoms: _230  and  _231
REMARK   89  A    between atoms: _234  and  _236
REMARK   90  A    between atoms: _236  and  _237
REMARK   91  A    between atoms: _239  and  _241
REMARK   92  A    between atoms: _241  and  _242
REMARK   93  A    between atoms: _244  and  _246
REMARK   94  A    between atoms: _246  and  _247
REMARK   95  A    between atoms: _246  and  _249
REMARK   96  A    between atoms: _249  and  _250
REMARK   97  A    between atoms: _253  and  _255
REMARK   98  A    between atoms: _255  and  _256
REMARK   99  A    between atoms: _255  and  _258
REMARK  100  A    between atoms: _258  and  _259
REMARK  101  A    between atoms: _262  and  _264
REMARK  102  A    between atoms: _264  and  _265
REMARK  103  A    between atoms: _264  and  _267
REMARK  104  A    between atoms: _267  and  _268
REMARK  105  A    between atoms: _273  and  _275
REMARK  106  A    between atoms: _275  and  _276
REMARK  107  A    between atoms: _275  and  _278
REMARK  108  A    between atoms: _278  and  _279
REMARK  109  A    between atoms: _282  and  _284
REMARK  110  A    between atoms: _284  and  _285
REMARK  111  A    between atoms: _284  and  _287
REMARK  112  A    between atoms: _287  and  _288
REMARK  113  A    between atoms: _288  and  _289
REMARK  114  A    between atoms: _292  and  _294
REMARK  115  A    between atoms: _294  and  _295
REMARK  116  A    between atoms: _294  and  _297
REMARK  117  A    between atoms: _300  and  _302
REMARK  118  A    between atoms: _302  and  _303
REMARK  119  A    between atoms: _302  and  _305
REMARK  120  A    between atoms: _305  and  _306
REMARK  121  A    between atoms: _311  and  _313
REMARK  122  A    between atoms: _313  and  _314
REMARK  123  A    between atoms: _313  and  _316
REMARK  124  A    between atoms: _316  and  _317
REMARK  125  A    between atoms: _320  and  _322
REMARK  126  A    between atoms: _322  and  _323
REMARK  127  A    between atoms: _322  and  _325
REMARK  128  A    between atoms: _325  and  _326
REMARK  129  A    between atoms: _328  and  _330
REMARK  130  A    between atoms: _330  and  _331
REMARK  131  A    between atoms: _330  and  _333
REMARK  132  A    between atoms: _333  and  _334
REMARK  133  A    between atoms: _339  and  _341
REMARK  134  A    between atoms: _341  and  _342
REMARK  135  A    between atoms: _341  and  _344
REMARK  136  A    between atoms: _347  and  _349
REMARK  137  A    between atoms: _349  and  _350
REMARK  138  A    between atoms: _349  and  _352
REMARK  139  A    between atoms: _352  and  _353
REMARK  140  A    between atoms: _358  and  _360
REMARK  141  A    between atoms: _360  and  _361
REMARK  142  A    between atoms: _360  and  _363
REMARK  143  A    between atoms: _363  and  _364
REMARK  144  A    between atoms: _364  and  _365
REMARK  145  A    between atoms: _365  and  _366
REMARK  146  A    between atoms: _375  and  _377
REMARK  147  A    between atoms: _377  and  _378
REMARK  148  A    between atoms: _377  and  _380
REMARK  149  A    between atoms: _380  and  _381
REMARK  150  A    between atoms: _381  and  _382
REMARK  151  A    between atoms: _385  and  _387
REMARK  152  A    between atoms: _387  and  _388
REMARK  153  A    between atoms: _387  and  _390
REMARK  154  A    between atoms: _390  and  _391
REMARK  155  A    between atoms: _397  and  _399
REMARK  156  A    between atoms: _399  and  _400
REMARK  157  A    between atoms: _399  and  _402
REMARK  158  A    between atoms: _402  and  _403
REMARK  159  A    between atoms: _403  and  _404
REMARK  160  A    between atoms: _404  and  _405
REMARK  161  A    between atoms: _414  and  _416
REMARK  162  A    between atoms: _416  and  _417
REMARK  163  A    between atoms: _416  and  _419
REMARK  164  A    between atoms: _419  and  _420
REMARK  165  A    between atoms: _420  and  _421
REMARK  166  A    between atoms: _421  and  _422
REMARK  167  A    between atoms: _431  and  _433
REMARK  168  A    between atoms: _433  and  _434
REMARK  169  A    between atoms: _433  and  _436
REMARK  170  A    between atoms: _436  and  _437
REMARK  171  A    between atoms: _442  and  _444
REMARK  172  A    between atoms: _444  and  _445
REMARK  173  A    between atoms: _444  and  _447
REMARK  174  A    between atoms: _447  and  _448
REMARK  175  A    between atoms: _450  and  _452
REMARK  176  A    between atoms: _452  and  _453
REMARK  177  A    between atoms: _452  and  _455
REMARK  178  A    between atoms: _455  and  _456
REMARK  179  A    between atoms: _459  and  _461
REMARK  180  A    between atoms: _461  and  _462
REMARK  181  A    between atoms: _461  and  _464
REMARK  182  A    between atoms: _464  and  _465
REMARK  183  A    between atoms: _468  and  _470
REMARK  184  A    between atoms: _470  and  _471
REMARK  185  A    between atoms: _470  and  _473
REMARK  186  A    between atoms: _476  and  _478
REMARK  187  A    between atoms: _478  and  _479
REMARK  188  A    between atoms: _481  and  _483
REMARK  189  A    between atoms: _483  and  _484
REMARK  190  A    between atoms: _483  and  _486
REMARK  191  A    between atoms: _486  and  _487
REMARK  192  A    between atoms: _490  and  _492
REMARK  193  A    between atoms: _492  and  _493
REMARK  194  A    between atoms: _495  and  _497
REMARK  195  A    between atoms: _497  and  _498
REMARK  196  A    between atoms: _497  and  _500
REMARK  197  A    between atoms: _500  and  _501
REMARK  198  A    between atoms: _504  and  _506
REMARK  199  A    between atoms: _506  and  _507
REMARK  200  A    between atoms: _506  and  _509
REMARK  201  A    between atoms: _509  and  _510
REMARK  202  A    between atoms: _515  and  _516
REMARK  203  A    between atoms: _518  and  _520
REMARK  204  A    between atoms: _520  and  _521
REMARK  205  A    between atoms: _520  and  _523
REMARK  206  A    between atoms: _523  and  _524
REMARK  207  A    between atoms: _527  and  _529
REMARK  208  A    between atoms: _529  and  _530
REMARK  209  A    between atoms: _529  and  _532
REMARK  210  A    between atoms: _532  and  _533
REMARK  211  A    between atoms: _538  and  _540
REMARK  212  A    between atoms: _540  and  _541
REMARK  213  A    between atoms: _544  and  _546
REMARK  214  A    between atoms: _546  and  _547
REMARK  215  A    between atoms: _546  and  _549
REMARK  216  A    between atoms: _552  and  _554
REMARK  217  A    between atoms: _554  and  _555
REMARK  218  A    between atoms: _558  and  _560
REMARK  219  A    between atoms: _560  and  _561
REMARK  220  A    between atoms: _560  and  _563
REMARK  221  A    between atoms: _563  and  _564
REMARK  222  A    between atoms: _567  and  _569
REMARK  223  A    between atoms: _569  and  _570
REMARK  224  A    between atoms: _569  and  _572
REMARK  225  A    between atoms: _572  and  _573
REMARK  226  A    between atoms: _573  and  _574
REMARK  227  A    between atoms: _574  and  _575
REMARK  228  A    between atoms: _584  and  _586
REMARK  229  A    between atoms: _586  and  _587
REMARK  230  A    between atoms: _586  and  _589
REMARK  231  A    between atoms: _589  and  _590
REMARK  232  A    between atoms: _593  and  _595
REMARK  233  A    between atoms: _595  and  _596
REMARK  234  A    between atoms: _599  and  _601
REMARK  235  A    between atoms: _601  and  _602
REMARK  236  A    between atoms: _605  and  _607
REMARK  237  A    between atoms: _607  and  _608
REMARK  238  A    between atoms: _607  and  _610
REMARK  239  A    between atoms: _610  and  _611
REMARK  240  A    between atoms: _611  and  _612
REMARK                            x       y       z     vdW  Elec       q    Type
REMARK                         _______ _______ _______ _____ _____    ______ ____
ROOT
ATOM      1  O   HOH     1     -36.092 -54.473 -42.057  0.00  0.00    +0.000 OA
ENDROOT
TORSDOF 0
REMARK  Name = ../refined-set-2016/3n76/3n76_pocket.pdb
REMARK  240 active torsions:
REMARK  status: ('A' for Active; 'I' for Inactive)
REMARK    1  A    between atoms: _1  and  _3
REMARK    2  A    between atoms: _3  and  _4
REMARK    3  A    between atoms: _3  and  _6
REMARK    4  A    between atoms: _6  and  _7
REMARK    5  A    between atoms: _12  and  _14
REMARK    6  A    between atoms: _14  and  _15
REMARK    7  A    between atoms: _18  and  _19
REMARK    8  A    between atoms: _24  and  _26
REMARK    9  A    between atoms: _26  and  _27
REMARK   10  A    between atoms: _26  and  _29
REMARK   11  A    between atoms: _29  and  _30
REMARK   12  A    between atoms: _35  and  _37
REMARK   13  A    between atoms: _37  and  _38
REMARK   14  A    between atoms: _37  and  _40
REMARK   15  A    between atoms: _40  and  _41
REMARK   16  A    between atoms: _44  and  _46
REMARK   17  A    between atoms: _46  and  _47
REMARK   18  A    between atoms: _49  and  _51
REMARK   19  A    between atoms: _51  and  _52
REMARK   20  A    between atoms: _51  and  _54
REMARK   21  A    between atoms: _54  and  _55
REMARK   22  A    between atoms: _55  and  _56
REMARK   23  A    between atoms: _56  and  _57
REMARK   24  A    between atoms: _66  and  _68
REMARK   25  A    between atoms: _68  and  _69
REMARK   26  A    between atoms: _68  and  _71
REMARK   27  A    between atoms: _71  and  _72
REMARK   28  A    between atoms: _75  and  _77
REMARK   29  A    between atoms: _77  and  _78
REMARK   30  A    between atoms: _80  and  _82
REMARK   31  A    between atoms: _82  and  _83
REMARK   32  A    between atoms: _82  and  _85
REMARK   33  A    between atoms: _85  and  _86
REMARK   34  A    between atoms: _86  and  _87
REMARK   35  A    between atoms: _87  and  _88
REMARK   36  A    between atoms: _97  and  _99
REMARK   37  A    between atoms: _99  and  _100
REMARK   38  A    between atoms: _99  and  _102
REMARK   39  A    between atoms: _102  and  _103
REMARK   40  A    between atoms: _103  and  _104
REMARK   41  A    between atoms: _104  and  _105
REMARK   42  A    between atoms: _114  and  _116
REMARK   43  A    between atoms: _116  and  _117
REMARK   44  A    between atoms: _116  and  _119
REMARK   45  A    between atoms: _119  and  _120
REMARK   46  A    between atoms: _120  and  _121
REMARK   47  A    between atoms: _125  and  _126
REMARK   48  A    between atoms: _131  and  _133
REMARK   49  A    between atoms: _133  and  _134
REMARK   50  A    between atoms: _133  and  _136
REMARK   51  A    between atoms: _139  and  _141
REMARK   52  A    between atoms: _141  and  _142
REMARK   53  A    between atoms: _141  and  _144
REMARK   54  A    between atoms: _144  and  _145
REMARK   55  A    between atoms: _150  and  _151
REMARK   56  A    between atoms: _153  and  _155
REMARK   57  A    between atoms: _155  and  _156
REMARK   58  A    between atoms: _158  and  _160
REMARK   59  A    between atoms: _160  and  _161
REMARK   60  A    between atoms: _160  and  _163
REMARK   61  A    between atoms: _163  and  _164
REMARK   62  A    between atoms: _167  and  _169
REMARK   63  A    between atoms: _169  and  _170
REMARK   64  A    between atoms: _169  and  _172
REMARK   65  A    between atoms: _172  and  _173
REMARK   66  A    between atoms: _176  and  _178
REMARK   67  A    between atoms: _178  and  _179
REMARK   68  A    between atoms: _178  and  _181
REMARK   69  A    between atoms: _181  and  _182
REMARK   70  A    between atoms: _187  and  _189
REMARK   71  A    between atoms: _189  and  _190
REMARK   72  A    between atoms: _189  and  _192
REMARK   73  A    between atoms: _192  and  _193
REMARK   74  A    between atoms: _193  and  _194
REMARK   75  A    between atoms: _199  and  _201
REMARK   76  A    between atoms: _201  and  _202
REMARK   77  A    between atoms: _201  and  _204
REMARK   78  A    between atoms: _204  and  _205
REMARK   79  A    between atoms: _208  and  _210
REMARK   80  A    between atoms: _210  and  _211
REMARK   81  A    between atoms: _210  and  _213
REMARK   82  A    between atoms: _213  and  _214
REMARK   83  A    between atoms: _217  and  _219
REMARK   84  A    between atoms: _219  and  _220
REMARK   85  A    between atoms: _219  and  _222
REMARK   86  A    between atoms: _222  and  _223
REMARK   87  A    between atoms: _228  and  _230
REMARK   88  A    between atoms: _230  and  _231
REMARK   89  A    between atoms: _234  and  _236
REMARK   90  A    between atoms: _236  and  _237
REMARK   91  A    between atoms: _239  and  _241
REMARK   92  A    between atoms: _241  and  _242
REMARK   93  A    between atoms: _244  and  _246
REMARK   94  A    between atoms: _246  and  _247
REMARK   95  A    between atoms: _246  and  _249
REMARK   96  A    between atoms: _249  and  _250
REMARK   97  A    between atoms: _253  and  _255
REMARK   98  A    between atoms: _255  and  _256
REMARK   99  A    between atoms: _255  and  _258
REMARK  100  A    between atoms: _258  and  _259
REMARK  101  A    between atoms: _262  and  _264
REMARK  102  A    between atoms: _264  and  _265
REMARK  103  A    between atoms: _264  and  _267
REMARK  104  A    between atoms: _267  and  _268
REMARK  105  A    between atoms: _273  and  _275
REMARK  106  A    between atoms: _275  and  _276
REMARK  107  A    between atoms: _275  and  _278
REMARK  108  A    between atoms: _278  and  _279
REMARK  109  A    between atoms: _282  and  _284
REMARK  110  A    between atoms: _284  and  _285
REMARK  111  A    between atoms: _284  and  _287
REMARK  112  A    between atoms: _287  and  _288
REMARK  113  A    between atoms: _288  and  _289
REMARK  114  A    between atoms: _292  and  _294
REMARK  115  A    between atoms: _294  and  _295
REMARK  116  A    between atoms: _294  and  _297
REMARK  117  A    between atoms: _300  and  _302
REMARK  118  A    between atoms: _302  and  _303
REMARK  119  A    between atoms: _302  and  _305
REMARK  120  A    between atoms: _305  and  _306
REMARK  121  A    between atoms: _311  and  _313
REMARK  122  A    between atoms: _313  and  _314
REMARK  123  A    between atoms: _313  and  _316
REMARK  124  A    between atoms: _316  and  _317
REMARK  125  A    between atoms: _320  and  _322
REMARK  126  A    between atoms: _322  and  _323
REMARK  127  A    between atoms: _322  and  _325
REMARK  128  A    between atoms: _325  and  _326
REMARK  129  A    between atoms: _328  and  _330
REMARK  130  A    between atoms: _330  and  _331
REMARK  131  A    between atoms: _330  and  _333
REMARK  132  A    between atoms: _333  and  _334
REMARK  133  A    between atoms: _339  and  _341
REMARK  134  A    between atoms: _341  and  _342
REMARK  135  A    between atoms: _341  and  _344
REMARK  136  A    between atoms: _347  and  _349
REMARK  137  A    between atoms: _349  and  _350
REMARK  138  A    between atoms: _349  and  _352
REMARK  139  A    between atoms: _352  and  _353
REMARK  140  A    between atoms: _358  and  _360
REMARK  141  A    between atoms: _360  and  _361
REMARK  142  A    between atoms: _360  and  _363
REMARK  143  A    between atoms: _363  and  _364
REMARK  144  A    between atoms: _364  and  _365
REMARK  145  A    between atoms: _365  and  _366
REMARK  146  A    between atoms: _375  and  _377
REMARK  147  A    between atoms: _377  and  _378
REMARK  148  A    between atoms: _377  and  _380
REMARK  149  A    between atoms: _380  and  _381
REMARK  150  A    between atoms: _381  and  _382
REMARK  151  A    between atoms: _385  and  _387
REMARK  152  A    between atoms: _387  and  _388
REMARK  153  A    between atoms: _387  and  _390
REMARK  154  A    between atoms: _390  and  _391
REMARK  155  A    between atoms: _397  and  _399
REMARK  156  A    between atoms: _399  and  _400
REMARK  157  A    between atoms: _399  and  _402
REMARK  158  A    between atoms: _402  and  _403
REMARK  159  A    between atoms: _403  and  _404
REMARK  160  A    between atoms: _404  and  _405
REMARK  161  A    between atoms: _414  and  _416
REMARK  162  A    between atoms: _416  and  _417
REMARK  163  A    between atoms: _416  and  _419
REMARK  164  A    between atoms: _419  and  _420
REMARK  165  A    between atoms: _420  and  _421
REMARK  166  A    between atoms: _421  and  _422
REMARK  167  A    between atoms: _431  and  _433
REMARK  168  A    between atoms: _433  and  _434
REMARK  169  A    between atoms: _433  and  _436
REMARK  170  A    between atoms: _436  and  _437
REMARK  171  A    between atoms: _442  and  _444
REMARK  172  A    between atoms: _444  and  _445
REMARK  173  A    between atoms: _444  and  _447
REMARK  174  A    between atoms: _447  and  _448
REMARK  175  A    between atoms: _450  and  _452
REMARK  176  A    between atoms: _452  and  _453
REMARK  177  A    between atoms: _452  and  _455
REMARK  178  A    between atoms: _455  and  _456
REMARK  179  A    between atoms: _459  and  _461
REMARK  180  A    between atoms: _461  and  _462
REMARK  181  A    between atoms: _461  and  _464
REMARK  182  A    between atoms: _464  and  _465
REMARK  183  A    between atoms: _468  and  _470
REMARK  184  A    between atoms: _470  and  _471
REMARK  185  A    between atoms: _470  and  _473
REMARK  186  A    between atoms: _476  and  _478
REMARK  187  A    between atoms: _478  and  _479
REMARK  188  A    between atoms: _481  and  _483
REMARK  189  A    between atoms: _483  and  _484
REMARK  190  A    between atoms: _483  and  _486
REMARK  191  A    between atoms: _486  and  _487
REMARK  192  A    between atoms: _490  and  _492
REMARK  193  A    between atoms: _492  and  _493
REMARK  194  A    between atoms: _495  and  _497
REMARK  195  A    between atoms: _497  and  _498
REMARK  196  A    between atoms: _497  and  _500
REMARK  197  A    between atoms: _500  and  _501
REMARK  198  A    between atoms: _504  and  _506
REMARK  199  A    between atoms: _506  and  _507
REMARK  200  A    between atoms: _506  and  _509
REMARK  201  A    between atoms: _509  and  _510
REMARK  202  A    between atoms: _515  and  _516
REMARK  203  A    between atoms: _518  and  _520
REMARK  204  A    between atoms: _520  and  _521
REMARK  205  A    between atoms: _520  and  _523
REMARK  206  A    between atoms: _523  and  _524
REMARK  207  A    between atoms: _527  and  _529
REMARK  208  A    between atoms: _529  and  _530
REMARK  209  A    between atoms: _529  and  _532
REMARK  210  A    between atoms: _532  and  _533
REMARK  211  A    between atoms: _538  and  _540
REMARK  212  A    between atoms: _540  and  _541
REMARK  213  A    between atoms: _544  and  _546
REMARK  214  A    between atoms: _546  and  _547
REMARK  215  A    between atoms: _546  and  _549
REMARK  216  A    between atoms: _552  and  _554
REMARK  217  A    between atoms: _554  and  _555
REMARK  218  A    between atoms: _558  and  _560
REMARK  219  A    between atoms: _560  and  _561
REMARK  220  A    between atoms: _560  and  _563
REMARK  221  A    between atoms: _563  and  _564
REMARK  222  A    between atoms: _567  and  _569
REMARK  223  A    between atoms: _569  and  _570
REMARK  224  A    between atoms: _569  and  _572
REMARK  225  A    between atoms: _572  and  _573
REMARK  226  A    between atoms: _573  and  _574
REMARK  227  A    between atoms: _574  and  _575
REMARK  228  A    between atoms: _584  and  _586
REMARK  229  A    between atoms: _586  and  _587
REMARK  230  A    between atoms: _586  and  _589
REMARK  231  A    between atoms: _589  and  _590
REMARK  232  A    between atoms: _593  and  _595
REMARK  233  A    between atoms: _595  and  _596
REMARK  234  A    between atoms: _599  and  _601
REMARK  235  A    between atoms: _601  and  _602
REMARK  236  A    between atoms: _605  and  _607
REMARK  237  A    between atoms: _607  and  _608
REMARK  238  A    between atoms: _607  and  _610
REMARK  239  A    between atoms: _610  and  _611
REMARK  240  A    between atoms: _611  and  _612
REMARK                            x       y       z     vdW  Elec       q    Type
REMARK                         _______ _______ _______ _____ _____    ______ ____
ROOT
ATOM      1  O   HOH     1     -29.795 -58.828 -41.291  0.00  0.00    +0.000 OA
ENDROOT
TORSDOF 0
REMARK  Name = ../refined-set-2016/3n76/3n76_pocket.pdb
REMARK  240 active torsions:
REMARK  status: ('A' for Active; 'I' for Inactive)
REMARK    1  A    between atoms: _1  and  _3
REMARK    2  A    between atoms: _3  and  _4
REMARK    3  A    between atoms: _3  and  _6
REMARK    4  A    between atoms: _6  and  _7
REMARK    5  A    between atoms: _12  and  _14
REMARK    6  A    between atoms: _14  and  _15
REMARK    7  A    between atoms: _18  and  _19
REMARK    8  A    between atoms: _24  and  _26
REMARK    9  A    between atoms: _26  and  _27
REMARK   10  A    between atoms: _26  and  _29
REMARK   11  A    between atoms: _29  and  _30
REMARK   12  A    between atoms: _35  and  _37
REMARK   13  A    between atoms: _37  and  _38
REMARK   14  A    between atoms: _37  and  _40
REMARK   15  A    between atoms: _40  and  _41
REMARK   16  A    between atoms: _44  and  _46
REMARK   17  A    between atoms: _46  and  _47
REMARK   18  A    between atoms: _49  and  _51
REMARK   19  A    between atoms: _51  and  _52
REMARK   20  A    between atoms: _51  and  _54
REMARK   21  A    between atoms: _54  and  _55
REMARK   22  A    between atoms: _55  and  _56
REMARK   23  A    between atoms: _56  and  _57
REMARK   24  A    between atoms: _66  and  _68
REMARK   25  A    between atoms: _68  and  _69
REMARK   26  A    between atoms: _68  and  _71
REMARK   27  A    between atoms: _71  and  _72
REMARK   28  A    between atoms: _75  and  _77
REMARK   29  A    between atoms: _77  and  _78
REMARK   30  A    between atoms: _80  and  _82
REMARK   31  A    between atoms: _82  and  _83
REMARK   32  A    between atoms: _82  and  _85
REMARK   33  A    between atoms: _85  and  _86
REMARK   34  A    between atoms: _86  and  _87
REMARK   35  A    between atoms: _87  and  _88
REMARK   36  A    between atoms: _97  and  _99
REMARK   37  A    between atoms: _99  and  _100
REMARK   38  A    between atoms: _99  and  _102
REMARK   39  A    between atoms: _102  and  _103
REMARK   40  A    between atoms: _103  and  _104
REMARK   41  A    between atoms: _104  and  _105
REMARK   42  A    between atoms: _114  and  _116
REMARK   43  A    between atoms: _116  and  _117
REMARK   44  A    between atoms: _116  and  _119
REMARK   45  A    between atoms: _119  and  _120
REMARK   46  A    between atoms: _120  and  _121
REMARK   47  A    between atoms: _125  and  _126
REMARK   48  A    between atoms: _131  and  _133
REMARK   49  A    between atoms: _133  and  _134
REMARK   50  A    between atoms: _133  and  _136
REMARK   51  A    between atoms: _139  and  _141
REMARK   52  A    between atoms: _141  and  _142
REMARK   53  A    between atoms: _141  and  _144
REMARK   54  A    between atoms: _144  and  _145
REMARK   55  A    between atoms: _150  and  _151
REMARK   56  A    between atoms: _153  and  _155
REMARK   57  A    between atoms: _155  and  _156
REMARK   58  A    between atoms: _158  and  _160
REMARK   59  A    between atoms: _160  and  _161
REMARK   60  A    between atoms: _160  and  _163
REMARK   61  A    between atoms: _163  and  _164
REMARK   62  A    between atoms: _167  and  _169
REMARK   63  A    between atoms: _169  and  _170
REMARK   64  A    between atoms: _169  and  _172
REMARK   65  A    between atoms: _172  and  _173
REMARK   66  A    between atoms: _176  and  _178
REMARK   67  A    between atoms: _178  and  _179
REMARK   68  A    between atoms: _178  and  _181
REMARK   69  A    between atoms: _181  and  _182
REMARK   70  A    between atoms: _187  and  _189
REMARK   71  A    between atoms: _189  and  _190
REMARK   72  A    between atoms: _189  and  _192
REMARK   73  A    between atoms: _192  and  _193
REMARK   74  A    between atoms: _193  and  _194
REMARK   75  A    between atoms: _199  and  _201
REMARK   76  A    between atoms: _201  and  _202
REMARK   77  A    between atoms: _201  and  _204
REMARK   78  A    between atoms: _204  and  _205
REMARK   79  A    between atoms: _208  and  _210
REMARK   80  A    between atoms: _210  and  _211
REMARK   81  A    between atoms: _210  and  _213
REMARK   82  A    between atoms: _213  and  _214
REMARK   83  A    between atoms: _217  and  _219
REMARK   84  A    between atoms: _219  and  _220
REMARK   85  A    between atoms: _219  and  _222
REMARK   86  A    between atoms: _222  and  _223
REMARK   87  A    between atoms: _228  and  _230
REMARK   88  A    between atoms: _230  and  _231
REMARK   89  A    between atoms: _234  and  _236
REMARK   90  A    between atoms: _236  and  _237
REMARK   91  A    between atoms: _239  and  _241
REMARK   92  A    between atoms: _241  and  _242
REMARK   93  A    between atoms: _244  and  _246
REMARK   94  A    between atoms: _246  and  _247
REMARK   95  A    between atoms: _246  and  _249
REMARK   96  A    between atoms: _249  and  _250
REMARK   97  A    between atoms: _253  and  _255
REMARK   98  A    between atoms: _255  and  _256
REMARK   99  A    between atoms: _255  and  _258
REMARK  100  A    between atoms: _258  and  _259
REMARK  101  A    between atoms: _262  and  _264
REMARK  102  A    between atoms: _264  and  _265
REMARK  103  A    between atoms: _264  and  _267
REMARK  104  A    between atoms: _267  and  _268
REMARK  105  A    between atoms: _273  and  _275
REMARK  106  A    between atoms: _275  and  _276
REMARK  107  A    between atoms: _275  and  _278
REMARK  108  A    between atoms: _278  and  _279
REMARK  109  A    between atoms: _282  and  _284
REMARK  110  A    between atoms: _284  and  _285
REMARK  111  A    between atoms: _284  and  _287
REMARK  112  A    between atoms: _287  and  _288
REMARK  113  A    between atoms: _288  and  _289
REMARK  114  A    between atoms: _292  and  _294
REMARK  115  A    between atoms: _294  and  _295
REMARK  116  A    between atoms: _294  and  _297
REMARK  117  A    between atoms: _300  and  _302
REMARK  118  A    between atoms: _302  and  _303
REMARK  119  A    between atoms: _302  and  _305
REMARK  120  A    between atoms: _305  and  _306
REMARK  121  A    between atoms: _311  and  _313
REMARK  122  A    between atoms: _313  and  _314
REMARK  123  A    between atoms: _313  and  _316
REMARK  124  A    between atoms: _316  and  _317
REMARK  125  A    between atoms: _320  and  _322
REMARK  126  A    between atoms: _322  and  _323
REMARK  127  A    between atoms: _322  and  _325
REMARK  128  A    between atoms: _325  and  _326
REMARK  129  A    between atoms: _328  and  _330
REMARK  130  A    between atoms: _330  and  _331
REMARK  131  A    between atoms: _330  and  _333
REMARK  132  A    between atoms: _333  and  _334
REMARK  133  A    between atoms: _339  and  _341
REMARK  134  A    between atoms: _341  and  _342
REMARK  135  A    between atoms: _341  and  _344
REMARK  136  A    between atoms: _347  and  _349
REMARK  137  A    between atoms: _349  and  _350
REMARK  138  A    between atoms: _349  and  _352
REMARK  139  A    between atoms: _352  and  _353
REMARK  140  A    between atoms: _358  and  _360
REMARK  141  A    between atoms: _360  and  _361
REMARK  142  A    between atoms: _360  and  _363
REMARK  143  A    between atoms: _363  and  _364
REMARK  144  A    between atoms: _364  and  _365
REMARK  145  A    between atoms: _365  and  _366
REMARK  146  A    between atoms: _375  and  _377
REMARK  147  A    between atoms: _377  and  _378
REMARK  148  A    between atoms: _377  and  _380
REMARK  149  A    between atoms: _380  and  _381
REMARK  150  A    between atoms: _381  and  _382
REMARK  151  A    between atoms: _385  and  _387
REMARK  152  A    between atoms: _387  and  _388
REMARK  153  A    between atoms: _387  and  _390
REMARK  154  A    between atoms: _390  and  _391
REMARK  155  A    between atoms: _397  and  _399
REMARK  156  A    between atoms: _399  and  _400
REMARK  157  A    between atoms: _399  and  _402
REMARK  158  A    between atoms: _402  and  _403
REMARK  159  A    between atoms: _403  and  _404
REMARK  160  A    between atoms: _404  and  _405
REMARK  161  A    between atoms: _414  and  _416
REMARK  162  A    between atoms: _416  and  _417
REMARK  163  A    between atoms: _416  and  _419
REMARK  164  A    between atoms: _419  and  _420
REMARK  165  A    between atoms: _420  and  _421
REMARK  166  A    between atoms: _421  and  _422
REMARK  167  A    between atoms: _431  and  _433
REMARK  168  A    between atoms: _433  and  _434
REMARK  169  A    between atoms: _433  and  _436
REMARK  170  A    between atoms: _436  and  _437
REMARK  171  A    between atoms: _442  and  _444
REMARK  172  A    between atoms: _444  and  _445
REMARK  173  A    between atoms: _444  and  _447
REMARK  174  A    between atoms: _447  and  _448
REMARK  175  A    between atoms: _450  and  _452
REMARK  176  A    between atoms: _452  and  _453
REMARK  177  A    between atoms: _452  and  _455
REMARK  178  A    between atoms: _455  and  _456
REMARK  179  A    between atoms: _459  and  _461
REMARK  180  A    between atoms: _461  and  _462
REMARK  181  A    between atoms: _461  and  _464
REMARK  182  A    between atoms: _464  and  _465
REMARK  183  A    between atoms: _468  and  _470
REMARK  184  A    between atoms: _470  and  _471
REMARK  185  A    between atoms: _470  and  _473
REMARK  186  A    between atoms: _476  and  _478
REMARK  187  A    between atoms: _478  and  _479
REMARK  188  A    between atoms: _481  and  _483
REMARK  189  A    between atoms: _483  and  _484
REMARK  190  A    between atoms: _483  and  _486
REMARK  191  A    between atoms: _486  and  _487
REMARK  192  A    between atoms: _490  and  _492
REMARK  193  A    between atoms: _492  and  _493
REMARK  194  A    between atoms: _495  and  _497
REMARK  195  A    between atoms: _497  and  _498
REMARK  196  A    between atoms: _497  and  _500
REMARK  197  A    between atoms: _500  and  _501
REMARK  198  A    between atoms: _504  and  _506
REMARK  199  A    between atoms: _506  and  _507
REMARK  200  A    between atoms: _506  and  _509
REMARK  201  A    between atoms: _509  and  _510
REMARK  202  A    between atoms: _515  and  _516
REMARK  203  A    between atoms: _518  and  _520
REMARK  204  A    between atoms: _520  and  _521
REMARK  205  A    between atoms: _520  and  _523
REMARK  206  A    between atoms: _523  and  _524
REMARK  207  A    between atoms: _527  and  _529
REMARK  208  A    between atoms: _529  and  _530
REMARK  209  A    between atoms: _529  and  _532
REMARK  210  A    between atoms: _532  and  _533
REMARK  211  A    between atoms: _538  and  _540
REMARK  212  A    between atoms: _540  and  _541
REMARK  213  A    between atoms: _544  and  _546
REMARK  214  A    between atoms: _546  and  _547
REMARK  215  A    between atoms: _546  and  _549
REMARK  216  A    between atoms: _552  and  _554
REMARK  217  A    between atoms: _554  and  _555
REMARK  218  A    between atoms: _558  and  _560
REMARK  219  A    between atoms: _560  and  _561
REMARK  220  A    between atoms: _560  and  _563
REMARK  221  A    between atoms: _563  and  _564
REMARK  222  A    between atoms: _567  and  _569
REMARK  223  A    between atoms: _569  and  _570
REMARK  224  A    between atoms: _569  and  _572
REMARK  225  A    between atoms: _572  and  _573
REMARK  226  A    between atoms: _573  and  _574
REMARK  227  A    between atoms: _574  and  _575
REMARK  228  A    between atoms: _584  and  _586
REMARK  229  A    between atoms: _586  and  _587
REMARK  230  A    between atoms: _586  and  _589
REMARK  231  A    between atoms: _589  and  _590
REMARK  232  A    between atoms: _593  and  _595
REMARK  233  A    between atoms: _595  and  _596
REMARK  234  A    between atoms: _599  and  _601
REMARK  235  A    between atoms: _601  and  _602
REMARK  236  A    between atoms: _605  and  _607
REMARK  237  A    between atoms: _607  and  _608
REMARK  238  A    between atoms: _607  and  _610
REMARK  239  A    between atoms: _610  and  _611
REMARK  240  A    between atoms: _611  and  _612
REMARK                            x       y       z     vdW  Elec       q    Type
REMARK                         _______ _______ _______ _____ _____    ______ ____
ROOT
ATOM      1  O   HOH     1     -41.586 -57.055 -47.161  0.00  0.00    +0.000 OA
ENDROOT
TORSDOF 0
REMARK  Name = ../refined-set-2016/3n76/3n76_pocket.pdb
REMARK  240 active torsions:
REMARK  status: ('A' for Active; 'I' for Inactive)
REMARK    1  A    between atoms: _1  and  _3
REMARK    2  A    between atoms: _3  and  _4
REMARK    3  A    between atoms: _3  and  _6
REMARK    4  A    between atoms: _6  and  _7
REMARK    5  A    between atoms: _12  and  _14
REMARK    6  A    between atoms: _14  and  _15
REMARK    7  A    between atoms: _18  and  _19
REMARK    8  A    between atoms: _24  and  _26
REMARK    9  A    between atoms: _26  and  _27
REMARK   10  A    between atoms: _26  and  _29
REMARK   11  A    between atoms: _29  and  _30
REMARK   12  A    between atoms: _35  and  _37
REMARK   13  A    between atoms: _37  and  _38
REMARK   14  A    between atoms: _37  and  _40
REMARK   15  A    between atoms: _40  and  _41
REMARK   16  A    between atoms: _44  and  _46
REMARK   17  A    between atoms: _46  and  _47
REMARK   18  A    between atoms: _49  and  _51
REMARK   19  A    between atoms: _51  and  _52
REMARK   20  A    between atoms: _51  and  _54
REMARK   21  A    between atoms: _54  and  _55
REMARK   22  A    between atoms: _55  and  _56
REMARK   23  A    between atoms: _56  and  _57
REMARK   24  A    between atoms: _66  and  _68
REMARK   25  A    between atoms: _68  and  _69
REMARK   26  A    between atoms: _68  and  _71
REMARK   27  A    between atoms: _71  and  _72
REMARK   28  A    between atoms: _75  and  _77
REMARK   29  A    between atoms: _77  and  _78
REMARK   30  A    between atoms: _80  and  _82
REMARK   31  A    between atoms: _82  and  _83
REMARK   32  A    between atoms: _82  and  _85
REMARK   33  A    between atoms: _85  and  _86
REMARK   34  A    between atoms: _86  and  _87
REMARK   35  A    between atoms: _87  and  _88
REMARK   36  A    between atoms: _97  and  _99
REMARK   37  A    between atoms: _99  and  _100
REMARK   38  A    between atoms: _99  and  _102
REMARK   39  A    between atoms: _102  and  _103
REMARK   40  A    between atoms: _103  and  _104
REMARK   41  A    between atoms: _104  and  _105
REMARK   42  A    between atoms: _114  and  _116
REMARK   43  A    between atoms: _116  and  _117
REMARK   44  A    between atoms: _116  and  _119
REMARK   45  A    between atoms: _119  and  _120
REMARK   46  A    between atoms: _120  and  _121
REMARK   47  A    between atoms: _125  and  _126
REMARK   48  A    between atoms: _131  and  _133
REMARK   49  A    between atoms: _133  and  _134
REMARK   50  A    between atoms: _133  and  _136
REMARK   51  A    between atoms: _139  and  _141
REMARK   52  A    between atoms: _141  and  _142
REMARK   53  A    between atoms: _141  and  _144
REMARK   54  A    between atoms: _144  and  _145
REMARK   55  A    between atoms: _150  and  _151
REMARK   56  A    between atoms: _153  and  _155
REMARK   57  A    between atoms: _155  and  _156
REMARK   58  A    between atoms: _158  and  _160
REMARK   59  A    between atoms: _160  and  _161
REMARK   60  A    between atoms: _160  and  _163
REMARK   61  A    between atoms: _163  and  _164
REMARK   62  A    between atoms: _167  and  _169
REMARK   63  A    between atoms: _169  and  _170
REMARK   64  A    between atoms: _169  and  _172
REMARK   65  A    between atoms: _172  and  _173
REMARK   66  A    between atoms: _176  and  _178
REMARK   67  A    between atoms: _178  and  _179
REMARK   68  A    between atoms: _178  and  _181
REMARK   69  A    between atoms: _181  and  _182
REMARK   70  A    between atoms: _187  and  _189
REMARK   71  A    between atoms: _189  and  _190
REMARK   72  A    between atoms: _189  and  _192
REMARK   73  A    between atoms: _192  and  _193
REMARK   74  A    between atoms: _193  and  _194
REMARK   75  A    between atoms: _199  and  _201
REMARK   76  A    between atoms: _201  and  _202
REMARK   77  A    between atoms: _201  and  _204
REMARK   78  A    between atoms: _204  and  _205
REMARK   79  A    between atoms: _208  and  _210
REMARK   80  A    between atoms: _210  and  _211
REMARK   81  A    between atoms: _210  and  _213
REMARK   82  A    between atoms: _213  and  _214
REMARK   83  A    between atoms: _217  and  _219
REMARK   84  A    between atoms: _219  and  _220
REMARK   85  A    between atoms: _219  and  _222
REMARK   86  A    between atoms: _222  and  _223
REMARK   87  A    between atoms: _228  and  _230
REMARK   88  A    between atoms: _230  and  _231
REMARK   89  A    between atoms: _234  and  _236
REMARK   90  A    between atoms: _236  and  _237
REMARK   91  A    between atoms: _239  and  _241
REMARK   92  A    between atoms: _241  and  _242
REMARK   93  A    between atoms: _244  and  _246
REMARK   94  A    between atoms: _246  and  _247
REMARK   95  A    between atoms: _246  and  _249
REMARK   96  A    between atoms: _249  and  _250
REMARK   97  A    between atoms: _253  and  _255
REMARK   98  A    between atoms: _255  and  _256
REMARK   99  A    between atoms: _255  and  _258
REMARK  100  A    between atoms: _258  and  _259
REMARK  101  A    between atoms: _262  and  _264
REMARK  102  A    between atoms: _264  and  _265
REMARK  103  A    between atoms: _264  and  _267
REMARK  104  A    between atoms: _267  and  _268
REMARK  105  A    between atoms: _273  and  _275
REMARK  106  A    between atoms: _275  and  _276
REMARK  107  A    between atoms: _275  and  _278
REMARK  108  A    between atoms: _278  and  _279
REMARK  109  A    between atoms: _282  and  _284
REMARK  110  A    between atoms: _284  and  _285
REMARK  111  A    between atoms: _284  and  _287
REMARK  112  A    between atoms: _287  and  _288
REMARK  113  A    between atoms: _288  and  _289
REMARK  114  A    between atoms: _292  and  _294
REMARK  115  A    between atoms: _294  and  _295
REMARK  116  A    between atoms: _294  and  _297
REMARK  117  A    between atoms: _300  and  _302
REMARK  118  A    between atoms: _302  and  _303
REMARK  119  A    between atoms: _302  and  _305
REMARK  120  A    between atoms: _305  and  _306
REMARK  121  A    between atoms: _311  and  _313
REMARK  122  A    between atoms: _313  and  _314
REMARK  123  A    between atoms: _313  and  _316
REMARK  124  A    between atoms: _316  and  _317
REMARK  125  A    between atoms: _320  and  _322
REMARK  126  A    between atoms: _322  and  _323
REMARK  127  A    between atoms: _322  and  _325
REMARK  128  A    between atoms: _325  and  _326
REMARK  129  A    between atoms: _328  and  _330
REMARK  130  A    between atoms: _330  and  _331
REMARK  131  A    between atoms: _330  and  _333
REMARK  132  A    between atoms: _333  and  _334
REMARK  133  A    between atoms: _339  and  _341
REMARK  134  A    between atoms: _341  and  _342
REMARK  135  A    between atoms: _341  and  _344
REMARK  136  A    between atoms: _347  and  _349
REMARK  137  A    between atoms: _349  and  _350
REMARK  138  A    between atoms: _349  and  _352
REMARK  139  A    between atoms: _352  and  _353
REMARK  140  A    between atoms: _358  and  _360
REMARK  141  A    between atoms: _360  and  _361
REMARK  142  A    between atoms: _360  and  _363
REMARK  143  A    between atoms: _363  and  _364
REMARK  144  A    between atoms: _364  and  _365
REMARK  145  A    between atoms: _365  and  _366
REMARK  146  A    between atoms: _375  and  _377
REMARK  147  A    between atoms: _377  and  _378
REMARK  148  A    between atoms: _377  and  _380
REMARK  149  A    between atoms: _380  and  _381
REMARK  150  A    between atoms: _381  and  _382
REMARK  151  A    between atoms: _385  and  _387
REMARK  152  A    between atoms: _387  and  _388
REMARK  153  A    between atoms: _387  and  _390
REMARK  154  A    between atoms: _390  and  _391
REMARK  155  A    between atoms: _397  and  _399
REMARK  156  A    between atoms: _399  and  _400
REMARK  157  A    between atoms: _399  and  _402
REMARK  158  A    between atoms: _402  and  _403
REMARK  159  A    between atoms: _403  and  _404
REMARK  160  A    between atoms: _404  and  _405
REMARK  161  A    between atoms: _414  and  _416
REMARK  162  A    between atoms: _416  and  _417
REMARK  163  A    between atoms: _416  and  _419
REMARK  164  A    between atoms: _419  and  _420
REMARK  165  A    between atoms: _420  and  _421
REMARK  166  A    between atoms: _421  and  _422
REMARK  167  A    between atoms: _431  and  _433
REMARK  168  A    between atoms: _433  and  _434
REMARK  169  A    between atoms: _433  and  _436
REMARK  170  A    between atoms: _436  and  _437
REMARK  171  A    between atoms: _442  and  _444
REMARK  172  A    between atoms: _444  and  _445
REMARK  173  A    between atoms: _444  and  _447
REMARK  174  A    between atoms: _447  and  _448
REMARK  175  A    between atoms: _450  and  _452
REMARK  176  A    between atoms: _452  and  _453
REMARK  177  A    between atoms: _452  and  _455
REMARK  178  A    between atoms: _455  and  _456
REMARK  179  A    between atoms: _459  and  _461
REMARK  180  A    between atoms: _461  and  _462
REMARK  181  A    between atoms: _461  and  _464
REMARK  182  A    between atoms: _464  and  _465
REMARK  183  A    between atoms: _468  and  _470
REMARK  184  A    between atoms: _470  and  _471
REMARK  185  A    between atoms: _470  and  _473
REMARK  186  A    between atoms: _476  and  _478
REMARK  187  A    between atoms: _478  and  _479
REMARK  188  A    between atoms: _481  and  _483
REMARK  189  A    between atoms: _483  and  _484
REMARK  190  A    between atoms: _483  and  _486
REMARK  191  A    between atoms: _486  and  _487
REMARK  192  A    between atoms: _490  and  _492
REMARK  193  A    between atoms: _492  and  _493
REMARK  194  A    between atoms: _495  and  _497
REMARK  195  A    between atoms: _497  and  _498
REMARK  196  A    between atoms: _497  and  _500
REMARK  197  A    between atoms: _500  and  _501
REMARK  198  A    between atoms: _504  and  _506
REMARK  199  A    between atoms: _506  and  _507
REMARK  200  A    between atoms: _506  and  _509
REMARK  201  A    between atoms: _509  and  _510
REMARK  202  A    between atoms: _515  and  _516
REMARK  203  A    between atoms: _518  and  _520
REMARK  204  A    between atoms: _520  and  _521
REMARK  205  A    between atoms: _520  and  _523
REMARK  206  A    between atoms: _523  and  _524
REMARK  207  A    between atoms: _527  and  _529
REMARK  208  A    between atoms: _529  and  _530
REMARK  209  A    between atoms: _529  and  _532
REMARK  210  A    between atoms: _532  and  _533
REMARK  211  A    between atoms: _538  and  _540
REMARK  212  A    between atoms: _540  and  _541
REMARK  213  A    between atoms: _544  and  _546
REMARK  214  A    between atoms: _546  and  _547
REMARK  215  A    between atoms: _546  and  _549
REMARK  216  A    between atoms: _552  and  _554
REMARK  217  A    between atoms: _554  and  _555
REMARK  218  A    between atoms: _558  and  _560
REMARK  219  A    between atoms: _560  and  _561
REMARK  220  A    between atoms: _560  and  _563
REMARK  221  A    between atoms: _563  and  _564
REMARK  222  A    between atoms: _567  and  _569
REMARK  223  A    between atoms: _569  and  _570
REMARK  224  A    between atoms: _569  and  _572
REMARK  225  A    between atoms: _572  and  _573
REMARK  226  A    between atoms: _573  and  _574
REMARK  227  A    between atoms: _574  and  _575
REMARK  228  A    between atoms: _584  and  _586
REMARK  229  A    between atoms: _586  and  _587
REMARK  230  A    between atoms: _586  and  _589
REMARK  231  A    between atoms: _589  and  _590
REMARK  232  A    between atoms: _593  and  _595
REMARK  233  A    between atoms: _595  and  _596
REMARK  234  A    between atoms: _599  and  _601
REMARK  235  A    between atoms: _601  and  _602
REMARK  236  A    between atoms: _605  and  _607
REMARK  237  A    between atoms: _607  and  _608
REMARK  238  A    between atoms: _607  and  _610
REMARK  239  A    between atoms: _610  and  _611
REMARK  240  A    between atoms: _611  and  _612
REMARK                            x       y       z     vdW  Elec       q    Type
REMARK                         _______ _______ _______ _____ _____    ______ ____
ROOT
ATOM      1  O   HOH     1     -37.551 -69.682 -53.181  0.00  0.00    +0.000 OA
ENDROOT
TORSDOF 0
REMARK  Name = ../refined-set-2016/3n76/3n76_pocket.pdb
REMARK  240 active torsions:
REMARK  status: ('A' for Active; 'I' for Inactive)
REMARK    1  A    between atoms: _1  and  _3
REMARK    2  A    between atoms: _3  and  _4
REMARK    3  A    between atoms: _3  and  _6
REMARK    4  A    between atoms: _6  and  _7
REMARK    5  A    between atoms: _12  and  _14
REMARK    6  A    between atoms: _14  and  _15
REMARK    7  A    between atoms: _18  and  _19
REMARK    8  A    between atoms: _24  and  _26
REMARK    9  A    between atoms: _26  and  _27
REMARK   10  A    between atoms: _26  and  _29
REMARK   11  A    between atoms: _29  and  _30
REMARK   12  A    between atoms: _35  and  _37
REMARK   13  A    between atoms: _37  and  _38
REMARK   14  A    between atoms: _37  and  _40
REMARK   15  A    between atoms: _40  and  _41
REMARK   16  A    between atoms: _44  and  _46
REMARK   17  A    between atoms: _46  and  _47
REMARK   18  A    between atoms: _49  and  _51
REMARK   19  A    between atoms: _51  and  _52
REMARK   20  A    between atoms: _51  and  _54
REMARK   21  A    between atoms: _54  and  _55
REMARK   22  A    between atoms: _55  and  _56
REMARK   23  A    between atoms: _56  and  _57
REMARK   24  A    between atoms: _66  and  _68
REMARK   25  A    between atoms: _68  and  _69
REMARK   26  A    between atoms: _68  and  _71
REMARK   27  A    between atoms: _71  and  _72
REMARK   28  A    between atoms: _75  and  _77
REMARK   29  A    between atoms: _77  and  _78
REMARK   30  A    between atoms: _80  and  _82
REMARK   31  A    between atoms: _82  and  _83
REMARK   32  A    between atoms: _82  and  _85
REMARK   33  A    between atoms: _85  and  _86
REMARK   34  A    between atoms: _86  and  _87
REMARK   35  A    between atoms: _87  and  _88
REMARK   36  A    between atoms: _97  and  _99
REMARK   37  A    between atoms: _99  and  _100
REMARK   38  A    between atoms: _99  and  _102
REMARK   39  A    between atoms: _102  and  _103
REMARK   40  A    between atoms: _103  and  _104
REMARK   41  A    between atoms: _104  and  _105
REMARK   42  A    between atoms: _114  and  _116
REMARK   43  A    between atoms: _116  and  _117
REMARK   44  A    between atoms: _116  and  _119
REMARK   45  A    between atoms: _119  and  _120
REMARK   46  A    between atoms: _120  and  _121
REMARK   47  A    between atoms: _125  and  _126
REMARK   48  A    between atoms: _131  and  _133
REMARK   49  A    between atoms: _133  and  _134
REMARK   50  A    between atoms: _133  and  _136
REMARK   51  A    between atoms: _139  and  _141
REMARK   52  A    between atoms: _141  and  _142
REMARK   53  A    between atoms: _141  and  _144
REMARK   54  A    between atoms: _144  and  _145
REMARK   55  A    between atoms: _150  and  _151
REMARK   56  A    between atoms: _153  and  _155
REMARK   57  A    between atoms: _155  and  _156
REMARK   58  A    between atoms: _158  and  _160
REMARK   59  A    between atoms: _160  and  _161
REMARK   60  A    between atoms: _160  and  _163
REMARK   61  A    between atoms: _163  and  _164
REMARK   62  A    between atoms: _167  and  _169
REMARK   63  A    between atoms: _169  and  _170
REMARK   64  A    between atoms: _169  and  _172
REMARK   65  A    between atoms: _172  and  _173
REMARK   66  A    between atoms: _176  and  _178
REMARK   67  A    between atoms: _178  and  _179
REMARK   68  A    between atoms: _178  and  _181
REMARK   69  A    between atoms: _181  and  _182
REMARK   70  A    between atoms: _187  and  _189
REMARK   71  A    between atoms: _189  and  _190
REMARK   72  A    between atoms: _189  and  _192
REMARK   73  A    between atoms: _192  and  _193
REMARK   74  A    between atoms: _193  and  _194
REMARK   75  A    between atoms: _199  and  _201
REMARK   76  A    between atoms: _201  and  _202
REMARK   77  A    between atoms: _201  and  _204
REMARK   78  A    between atoms: _204  and  _205
REMARK   79  A    between atoms: _208  and  _210
REMARK   80  A    between atoms: _210  and  _211
REMARK   81  A    between atoms: _210  and  _213
REMARK   82  A    between atoms: _213  and  _214
REMARK   83  A    between atoms: _217  and  _219
REMARK   84  A    between atoms: _219  and  _220
REMARK   85  A    between atoms: _219  and  _222
REMARK   86  A    between atoms: _222  and  _223
REMARK   87  A    between atoms: _228  and  _230
REMARK   88  A    between atoms: _230  and  _231
REMARK   89  A    between atoms: _234  and  _236
REMARK   90  A    between atoms: _236  and  _237
REMARK   91  A    between atoms: _239  and  _241
REMARK   92  A    between atoms: _241  and  _242
REMARK   93  A    between atoms: _244  and  _246
REMARK   94  A    between atoms: _246  and  _247
REMARK   95  A    between atoms: _246  and  _249
REMARK   96  A    between atoms: _249  and  _250
REMARK   97  A    between atoms: _253  and  _255
REMARK   98  A    between atoms: _255  and  _256
REMARK   99  A    between atoms: _255  and  _258
REMARK  100  A    between atoms: _258  and  _259
REMARK  101  A    between atoms: _262  and  _264
REMARK  102  A    between atoms: _264  and  _265
REMARK  103  A    between atoms: _264  and  _267
REMARK  104  A    between atoms: _267  and  _268
REMARK  105  A    between atoms: _273  and  _275
REMARK  106  A    between atoms: _275  and  _276
REMARK  107  A    between atoms: _275  and  _278
REMARK  108  A    between atoms: _278  and  _279
REMARK  109  A    between atoms: _282  and  _284
REMARK  110  A    between atoms: _284  and  _285
REMARK  111  A    between atoms: _284  and  _287
REMARK  112  A    between atoms: _287  and  _288
REMARK  113  A    between atoms: _288  and  _289
REMARK  114  A    between atoms: _292  and  _294
REMARK  115  A    between atoms: _294  and  _295
REMARK  116  A    between atoms: _294  and  _297
REMARK  117  A    between atoms: _300  and  _302
REMARK  118  A    between atoms: _302  and  _303
REMARK  119  A    between atoms: _302  and  _305
REMARK  120  A    between atoms: _305  and  _306
REMARK  121  A    between atoms: _311  and  _313
REMARK  122  A    between atoms: _313  and  _314
REMARK  123  A    between atoms: _313  and  _316
REMARK  124  A    between atoms: _316  and  _317
REMARK  125  A    between atoms: _320  and  _322
REMARK  126  A    between atoms: _322  and  _323
REMARK  127  A    between atoms: _322  and  _325
REMARK  128  A    between atoms: _325  and  _326
REMARK  129  A    between atoms: _328  and  _330
REMARK  130  A    between atoms: _330  and  _331
REMARK  131  A    between atoms: _330  and  _333
REMARK  132  A    between atoms: _333  and  _334
REMARK  133  A    between atoms: _339  and  _341
REMARK  134  A    between atoms: _341  and  _342
REMARK  135  A    between atoms: _341  and  _344
REMARK  136  A    between atoms: _347  and  _349
REMARK  137  A    between atoms: _349  and  _350
REMARK  138  A    between atoms: _349  and  _352
REMARK  139  A    between atoms: _352  and  _353
REMARK  140  A    between atoms: _358  and  _360
REMARK  141  A    between atoms: _360  and  _361
REMARK  142  A    between atoms: _360  and  _363
REMARK  143  A    between atoms: _363  and  _364
REMARK  144  A    between atoms: _364  and  _365
REMARK  145  A    between atoms: _365  and  _366
REMARK  146  A    between atoms: _375  and  _377
REMARK  147  A    between atoms: _377  and  _378
REMARK  148  A    between atoms: _377  and  _380
REMARK  149  A    between atoms: _380  and  _381
REMARK  150  A    between atoms: _381  and  _382
REMARK  151  A    between atoms: _385  and  _387
REMARK  152  A    between atoms: _387  and  _388
REMARK  153  A    between atoms: _387  and  _390
REMARK  154  A    between atoms: _390  and  _391
REMARK  155  A    between atoms: _397  and  _399
REMARK  156  A    between atoms: _399  and  _400
REMARK  157  A    between atoms: _399  and  _402
REMARK  158  A    between atoms: _402  and  _403
REMARK  159  A    between atoms: _403  and  _404
REMARK  160  A    between atoms: _404  and  _405
REMARK  161  A    between atoms: _414  and  _416
REMARK  162  A    between atoms: _416  and  _417
REMARK  163  A    between atoms: _416  and  _419
REMARK  164  A    between atoms: _419  and  _420
REMARK  165  A    between atoms: _420  and  _421
REMARK  166  A    between atoms: _421  and  _422
REMARK  167  A    between atoms: _431  and  _433
REMARK  168  A    between atoms: _433  and  _434
REMARK  169  A    between atoms: _433  and  _436
REMARK  170  A    between atoms: _436  and  _437
REMARK  171  A    between atoms: _442  and  _444
REMARK  172  A    between atoms: _444  and  _445
REMARK  173  A    between atoms: _444  and  _447
REMARK  174  A    between atoms: _447  and  _448
REMARK  175  A    between atoms: _450  and  _452
REMARK  176  A    between atoms: _452  and  _453
REMARK  177  A    between atoms: _452  and  _455
REMARK  178  A    between atoms: _455  and  _456
REMARK  179  A    between atoms: _459  and  _461
REMARK  180  A    between atoms: _461  and  _462
REMARK  181  A    between atoms: _461  and  _464
REMARK  182  A    between atoms: _464  and  _465
REMARK  183  A    between atoms: _468  and  _470
REMARK  184  A    between atoms: _470  and  _471
REMARK  185  A    between atoms: _470  and  _473
REMARK  186  A    between atoms: _476  and  _478
REMARK  187  A    between atoms: _478  and  _479
REMARK  188  A    between atoms: _481  and  _483
REMARK  189  A    between atoms: _483  and  _484
REMARK  190  A    between atoms: _483  and  _486
REMARK  191  A    between atoms: _486  and  _487
REMARK  192  A    between atoms: _490  and  _492
REMARK  193  A    between atoms: _492  and  _493
REMARK  194  A    between atoms: _495  and  _497
REMARK  195  A    between atoms: _497  and  _498
REMARK  196  A    between atoms: _497  and  _500
REMARK  197  A    between atoms: _500  and  _501
REMARK  198  A    between atoms: _504  and  _506
REMARK  199  A    between atoms: _506  and  _507
REMARK  200  A    between atoms: _506  and  _509
REMARK  201  A    between atoms: _509  and  _510
REMARK  202  A    between atoms: _515  and  _516
REMARK  203  A    between atoms: _518  and  _520
REMARK  204  A    between atoms: _520  and  _521
REMARK  205  A    between atoms: _520  and  _523
REMARK  206  A    between atoms: _523  and  _524
REMARK  207  A    between atoms: _527  and  _529
REMARK  208  A    between atoms: _529  and  _530
REMARK  209  A    between atoms: _529  and  _532
REMARK  210  A    between atoms: _532  and  _533
REMARK  211  A    between atoms: _538  and  _540
REMARK  212  A    between atoms: _540  and  _541
REMARK  213  A    between atoms: _544  and  _546
REMARK  214  A    between atoms: _546  and  _547
REMARK  215  A    between atoms: _546  and  _549
REMARK  216  A    between atoms: _552  and  _554
REMARK  217  A    between atoms: _554  and  _555
REMARK  218  A    between atoms: _558  and  _560
REMARK  219  A    between atoms: _560  and  _561
REMARK  220  A    between atoms: _560  and  _563
REMARK  221  A    between atoms: _563  and  _564
REMARK  222  A    between atoms: _567  and  _569
REMARK  223  A    between atoms: _569  and  _570
REMARK  224  A    between atoms: _569  and  _572
REMARK  225  A    between atoms: _572  and  _573
REMARK  226  A    between atoms: _573  and  _574
REMARK  227  A    between atoms: _574  and  _575
REMARK  228  A    between atoms: _584  and  _586
REMARK  229  A    between atoms: _586  and  _587
REMARK  230  A    between atoms: _586  and  _589
REMARK  231  A    between atoms: _589  and  _590
REMARK  232  A    between atoms: _593  and  _595
REMARK  233  A    between atoms: _595  and  _596
REMARK  234  A    between atoms: _599  and  _601
REMARK  235  A    between atoms: _601  and  _602
REMARK  236  A    between atoms: _605  and  _607
REMARK  237  A    between atoms: _607  and  _608
REMARK  238  A    between atoms: _607  and  _610
REMARK  239  A    between atoms: _610  and  _611
REMARK  240  A    between atoms: _611  and  _612
REMARK                            x       y       z     vdW  Elec       q    Type
REMARK                         _______ _______ _______ _____ _____    ______ ____
ROOT
ATOM      1  O   HOH     1     -33.717 -68.495 -52.701  0.00  0.00    +0.000 OA
ENDROOT
TORSDOF 0
REMARK  Name = ../refined-set-2016/3n76/3n76_pocket.pdb
REMARK  240 active torsions:
REMARK  status: ('A' for Active; 'I' for Inactive)
REMARK    1  A    between atoms: _1  and  _3
REMARK    2  A    between atoms: _3  and  _4
REMARK    3  A    between atoms: _3  and  _6
REMARK    4  A    between atoms: _6  and  _7
REMARK    5  A    between atoms: _12  and  _14
REMARK    6  A    between atoms: _14  and  _15
REMARK    7  A    between atoms: _18  and  _19
REMARK    8  A    between atoms: _24  and  _26
REMARK    9  A    between atoms: _26  and  _27
REMARK   10  A    between atoms: _26  and  _29
REMARK   11  A    between atoms: _29  and  _30
REMARK   12  A    between atoms: _35  and  _37
REMARK   13  A    between atoms: _37  and  _38
REMARK   14  A    between atoms: _37  and  _40
REMARK   15  A    between atoms: _40  and  _41
REMARK   16  A    between atoms: _44  and  _46
REMARK   17  A    between atoms: _46  and  _47
REMARK   18  A    between atoms: _49  and  _51
REMARK   19  A    between atoms: _51  and  _52
REMARK   20  A    between atoms: _51  and  _54
REMARK   21  A    between atoms: _54  and  _55
REMARK   22  A    between atoms: _55  and  _56
REMARK   23  A    between atoms: _56  and  _57
REMARK   24  A    between atoms: _66  and  _68
REMARK   25  A    between atoms: _68  and  _69
REMARK   26  A    between atoms: _68  and  _71
REMARK   27  A    between atoms: _71  and  _72
REMARK   28  A    between atoms: _75  and  _77
REMARK   29  A    between atoms: _77  and  _78
REMARK   30  A    between atoms: _80  and  _82
REMARK   31  A    between atoms: _82  and  _83
REMARK   32  A    between atoms: _82  and  _85
REMARK   33  A    between atoms: _85  and  _86
REMARK   34  A    between atoms: _86  and  _87
REMARK   35  A    between atoms: _87  and  _88
REMARK   36  A    between atoms: _97  and  _99
REMARK   37  A    between atoms: _99  and  _100
REMARK   38  A    between atoms: _99  and  _102
REMARK   39  A    between atoms: _102  and  _103
REMARK   40  A    between atoms: _103  and  _104
REMARK   41  A    between atoms: _104  and  _105
REMARK   42  A    between atoms: _114  and  _116
REMARK   43  A    between atoms: _116  and  _117
REMARK   44  A    between atoms: _116  and  _119
REMARK   45  A    between atoms: _119  and  _120
REMARK   46  A    between atoms: _120  and  _121
REMARK   47  A    between atoms: _125  and  _126
REMARK   48  A    between atoms: _131  and  _133
REMARK   49  A    between atoms: _133  and  _134
REMARK   50  A    between atoms: _133  and  _136
REMARK   51  A    between atoms: _139  and  _141
REMARK   52  A    between atoms: _141  and  _142
REMARK   53  A    between atoms: _141  and  _144
REMARK   54  A    between atoms: _144  and  _145
REMARK   55  A    between atoms: _150  and  _151
REMARK   56  A    between atoms: _153  and  _155
REMARK   57  A    between atoms: _155  and  _156
REMARK   58  A    between atoms: _158  and  _160
REMARK   59  A    between atoms: _160  and  _161
REMARK   60  A    between atoms: _160  and  _163
REMARK   61  A    between atoms: _163  and  _164
REMARK   62  A    between atoms: _167  and  _169
REMARK   63  A    between atoms: _169  and  _170
REMARK   64  A    between atoms: _169  and  _172
REMARK   65  A    between atoms: _172  and  _173
REMARK   66  A    between atoms: _176  and  _178
REMARK   67  A    between atoms: _178  and  _179
REMARK   68  A    between atoms: _178  and  _181
REMARK   69  A    between atoms: _181  and  _182
REMARK   70  A    between atoms: _187  and  _189
REMARK   71  A    between atoms: _189  and  _190
REMARK   72  A    between atoms: _189  and  _192
REMARK   73  A    between atoms: _192  and  _193
REMARK   74  A    between atoms: _193  and  _194
REMARK   75  A    between atoms: _199  and  _201
REMARK   76  A    between atoms: _201  and  _202
REMARK   77  A    between atoms: _201  and  _204
REMARK   78  A    between atoms: _204  and  _205
REMARK   79  A    between atoms: _208  and  _210
REMARK   80  A    between atoms: _210  and  _211
REMARK   81  A    between atoms: _210  and  _213
REMARK   82  A    between atoms: _213  and  _214
REMARK   83  A    between atoms: _217  and  _219
REMARK   84  A    between atoms: _219  and  _220
REMARK   85  A    between atoms: _219  and  _222
REMARK   86  A    between atoms: _222  and  _223
REMARK   87  A    between atoms: _228  and  _230
REMARK   88  A    between atoms: _230  and  _231
REMARK   89  A    between atoms: _234  and  _236
REMARK   90  A    between atoms: _236  and  _237
REMARK   91  A    between atoms: _239  and  _241
REMARK   92  A    between atoms: _241  and  _242
REMARK   93  A    between atoms: _244  and  _246
REMARK   94  A    between atoms: _246  and  _247
REMARK   95  A    between atoms: _246  and  _249
REMARK   96  A    between atoms: _249  and  _250
REMARK   97  A    between atoms: _253  and  _255
REMARK   98  A    between atoms: _255  and  _256
REMARK   99  A    between atoms: _255  and  _258
REMARK  100  A    between atoms: _258  and  _259
REMARK  101  A    between atoms: _262  and  _264
REMARK  102  A    between atoms: _264  and  _265
REMARK  103  A    between atoms: _264  and  _267
REMARK  104  A    between atoms: _267  and  _268
REMARK  105  A    between atoms: _273  and  _275
REMARK  106  A    between atoms: _275  and  _276
REMARK  107  A    between atoms: _275  and  _278
REMARK  108  A    between atoms: _278  and  _279
REMARK  109  A    between atoms: _282  and  _284
REMARK  110  A    between atoms: _284  and  _285
REMARK  111  A    between atoms: _284  and  _287
REMARK  112  A    between atoms: _287  and  _288
REMARK  113  A    between atoms: _288  and  _289
REMARK  114  A    between atoms: _292  and  _294
REMARK  115  A    between atoms: _294  and  _295
REMARK  116  A    between atoms: _294  and  _297
REMARK  117  A    between atoms: _300  and  _302
REMARK  118  A    between atoms: _302  and  _303
REMARK  119  A    between atoms: _302  and  _305
REMARK  120  A    between atoms: _305  and  _306
REMARK  121  A    between atoms: _311  and  _313
REMARK  122  A    between atoms: _313  and  _314
REMARK  123  A    between atoms: _313  and  _316
REMARK  124  A    between atoms: _316  and  _317
REMARK  125  A    between atoms: _320  and  _322
REMARK  126  A    between atoms: _322  and  _323
REMARK  127  A    between atoms: _322  and  _325
REMARK  128  A    between atoms: _325  and  _326
REMARK  129  A    between atoms: _328  and  _330
REMARK  130  A    between atoms: _330  and  _331
REMARK  131  A    between atoms: _330  and  _333
REMARK  132  A    between atoms: _333  and  _334
REMARK  133  A    between atoms: _339  and  _341
REMARK  134  A    between atoms: _341  and  _342
REMARK  135  A    between atoms: _341  and  _344
REMARK  136  A    between atoms: _347  and  _349
REMARK  137  A    between atoms: _349  and  _350
REMARK  138  A    between atoms: _349  and  _352
REMARK  139  A    between atoms: _352  and  _353
REMARK  140  A    between atoms: _358  and  _360
REMARK  141  A    between atoms: _360  and  _361
REMARK  142  A    between atoms: _360  and  _363
REMARK  143  A    between atoms: _363  and  _364
REMARK  144  A    between atoms: _364  and  _365
REMARK  145  A    between atoms: _365  and  _366
REMARK  146  A    between atoms: _375  and  _377
REMARK  147  A    between atoms: _377  and  _378
REMARK  148  A    between atoms: _377  and  _380
REMARK  149  A    between atoms: _380  and  _381
REMARK  150  A    between atoms: _381  and  _382
REMARK  151  A    between atoms: _385  and  _387
REMARK  152  A    between atoms: _387  and  _388
REMARK  153  A    between atoms: _387  and  _390
REMARK  154  A    between atoms: _390  and  _391
REMARK  155  A    between atoms: _397  and  _399
REMARK  156  A    between atoms: _399  and  _400
REMARK  157  A    between atoms: _399  and  _402
REMARK  158  A    between atoms: _402  and  _403
REMARK  159  A    between atoms: _403  and  _404
REMARK  160  A    between atoms: _404  and  _405
REMARK  161  A    between atoms: _414  and  _416
REMARK  162  A    between atoms: _416  and  _417
REMARK  163  A    between atoms: _416  and  _419
REMARK  164  A    between atoms: _419  and  _420
REMARK  165  A    between atoms: _420  and  _421
REMARK  166  A    between atoms: _421  and  _422
REMARK  167  A    between atoms: _431  and  _433
REMARK  168  A    between atoms: _433  and  _434
REMARK  169  A    between atoms: _433  and  _436
REMARK  170  A    between atoms: _436  and  _437
REMARK  171  A    between atoms: _442  and  _444
REMARK  172  A    between atoms: _444  and  _445
REMARK  173  A    between atoms: _444  and  _447
REMARK  174  A    between atoms: _447  and  _448
REMARK  175  A    between atoms: _450  and  _452
REMARK  176  A    between atoms: _452  and  _453
REMARK  177  A    between atoms: _452  and  _455
REMARK  178  A    between atoms: _455  and  _456
REMARK  179  A    between atoms: _459  and  _461
REMARK  180  A    between atoms: _461  and  _462
REMARK  181  A    between atoms: _461  and  _464
REMARK  182  A    between atoms: _464  and  _465
REMARK  183  A    between atoms: _468  and  _470
REMARK  184  A    between atoms: _470  and  _471
REMARK  185  A    between atoms: _470  and  _473
REMARK  186  A    between atoms: _476  and  _478
REMARK  187  A    between atoms: _478  and  _479
REMARK  188  A    between atoms: _481  and  _483
REMARK  189  A    between atoms: _483  and  _484
REMARK  190  A    between atoms: _483  and  _486
REMARK  191  A    between atoms: _486  and  _487
REMARK  192  A    between atoms: _490  and  _492
REMARK  193  A    between atoms: _492  and  _493
REMARK  194  A    between atoms: _495  and  _497
REMARK  195  A    between atoms: _497  and  _498
REMARK  196  A    between atoms: _497  and  _500
REMARK  197  A    between atoms: _500  and  _501
REMARK  198  A    between atoms: _504  and  _506
REMARK  199  A    between atoms: _506  and  _507
REMARK  200  A    between atoms: _506  and  _509
REMARK  201  A    between atoms: _509  and  _510
REMARK  202  A    between atoms: _515  and  _516
REMARK  203  A    between atoms: _518  and  _520
REMARK  204  A    between atoms: _520  and  _521
REMARK  205  A    between atoms: _520  and  _523
REMARK  206  A    between atoms: _523  and  _524
REMARK  207  A    between atoms: _527  and  _529
REMARK  208  A    between atoms: _529  and  _530
REMARK  209  A    between atoms: _529  and  _532
REMARK  210  A    between atoms: _532  and  _533
REMARK  211  A    between atoms: _538  and  _540
REMARK  212  A    between atoms: _540  and  _541
REMARK  213  A    between atoms: _544  and  _546
REMARK  214  A    between atoms: _546  and  _547
REMARK  215  A    between atoms: _546  and  _549
REMARK  216  A    between atoms: _552  and  _554
REMARK  217  A    between atoms: _554  and  _555
REMARK  218  A    between atoms: _558  and  _560
REMARK  219  A    between atoms: _560  and  _561
REMARK  220  A    between atoms: _560  and  _563
REMARK  221  A    between atoms: _563  and  _564
REMARK  222  A    between atoms: _567  and  _569
REMARK  223  A    between atoms: _569  and  _570
REMARK  224  A    between atoms: _569  and  _572
REMARK  225  A    between atoms: _572  and  _573
REMARK  226  A    between atoms: _573  and  _574
REMARK  227  A    between atoms: _574  and  _575
REMARK  228  A    between atoms: _584  and  _586
REMARK  229  A    between atoms: _586  and  _587
REMARK  230  A    between atoms: _586  and  _589
REMARK  231  A    between atoms: _589  and  _590
REMARK  232  A    between atoms: _593  and  _595
REMARK  233  A    between atoms: _595  and  _596
REMARK  234  A    between atoms: _599  and  _601
REMARK  235  A    between atoms: _601  and  _602
REMARK  236  A    between atoms: _605  and  _607
REMARK  237  A    between atoms: _607  and  _608
REMARK  238  A    between atoms: _607  and  _610
REMARK  239  A    between atoms: _610  and  _611
REMARK  240  A    between atoms: _611  and  _612
REMARK                            x       y       z     vdW  Elec       q    Type
REMARK                         _______ _______ _______ _____ _____    ______ ____
ROOT
ATOM      1  O   HOH     1     -45.108 -67.007 -47.376  0.00  0.00    +0.000 OA
ENDROOT
TORSDOF 0
REMARK  Name = ../refined-set-2016/3n76/3n76_pocket.pdb
REMARK  240 active torsions:
REMARK  status: ('A' for Active; 'I' for Inactive)
REMARK    1  A    between atoms: _1  and  _3
REMARK    2  A    between atoms: _3  and  _4
REMARK    3  A    between atoms: _3  and  _6
REMARK    4  A    between atoms: _6  and  _7
REMARK    5  A    between atoms: _12  and  _14
REMARK    6  A    between atoms: _14  and  _15
REMARK    7  A    between atoms: _18  and  _19
REMARK    8  A    between atoms: _24  and  _26
REMARK    9  A    between atoms: _26  and  _27
REMARK   10  A    between atoms: _26  and  _29
REMARK   11  A    between atoms: _29  and  _30
REMARK   12  A    between atoms: _35  and  _37
REMARK   13  A    between atoms: _37  and  _38
REMARK   14  A    between atoms: _37  and  _40
REMARK   15  A    between atoms: _40  and  _41
REMARK   16  A    between atoms: _44  and  _46
REMARK   17  A    between atoms: _46  and  _47
REMARK   18  A    between atoms: _49  and  _51
REMARK   19  A    between atoms: _51  and  _52
REMARK   20  A    between atoms: _51  and  _54
REMARK   21  A    between atoms: _54  and  _55
REMARK   22  A    between atoms: _55  and  _56
REMARK   23  A    between atoms: _56  and  _57
REMARK   24  A    between atoms: _66  and  _68
REMARK   25  A    between atoms: _68  and  _69
REMARK   26  A    between atoms: _68  and  _71
REMARK   27  A    between atoms: _71  and  _72
REMARK   28  A    between atoms: _75  and  _77
REMARK   29  A    between atoms: _77  and  _78
REMARK   30  A    between atoms: _80  and  _82
REMARK   31  A    between atoms: _82  and  _83
REMARK   32  A    between atoms: _82  and  _85
REMARK   33  A    between atoms: _85  and  _86
REMARK   34  A    between atoms: _86  and  _87
REMARK   35  A    between atoms: _87  and  _88
REMARK   36  A    between atoms: _97  and  _99
REMARK   37  A    between atoms: _99  and  _100
REMARK   38  A    between atoms: _99  and  _102
REMARK   39  A    between atoms: _102  and  _103
REMARK   40  A    between atoms: _103  and  _104
REMARK   41  A    between atoms: _104  and  _105
REMARK   42  A    between atoms: _114  and  _116
REMARK   43  A    between atoms: _116  and  _117
REMARK   44  A    between atoms: _116  and  _119
REMARK   45  A    between atoms: _119  and  _120
REMARK   46  A    between atoms: _120  and  _121
REMARK   47  A    between atoms: _125  and  _126
REMARK   48  A    between atoms: _131  and  _133
REMARK   49  A    between atoms: _133  and  _134
REMARK   50  A    between atoms: _133  and  _136
REMARK   51  A    between atoms: _139  and  _141
REMARK   52  A    between atoms: _141  and  _142
REMARK   53  A    between atoms: _141  and  _144
REMARK   54  A    between atoms: _144  and  _145
REMARK   55  A    between atoms: _150  and  _151
REMARK   56  A    between atoms: _153  and  _155
REMARK   57  A    between atoms: _155  and  _156
REMARK   58  A    between atoms: _158  and  _160
REMARK   59  A    between atoms: _160  and  _161
REMARK   60  A    between atoms: _160  and  _163
REMARK   61  A    between atoms: _163  and  _164
REMARK   62  A    between atoms: _167  and  _169
REMARK   63  A    between atoms: _169  and  _170
REMARK   64  A    between atoms: _169  and  _172
REMARK   65  A    between atoms: _172  and  _173
REMARK   66  A    between atoms: _176  and  _178
REMARK   67  A    between atoms: _178  and  _179
REMARK   68  A    between atoms: _178  and  _181
REMARK   69  A    between atoms: _181  and  _182
REMARK   70  A    between atoms: _187  and  _189
REMARK   71  A    between atoms: _189  and  _190
REMARK   72  A    between atoms: _189  and  _192
REMARK   73  A    between atoms: _192  and  _193
REMARK   74  A    between atoms: _193  and  _194
REMARK   75  A    between atoms: _199  and  _201
REMARK   76  A    between atoms: _201  and  _202
REMARK   77  A    between atoms: _201  and  _204
REMARK   78  A    between atoms: _204  and  _205
REMARK   79  A    between atoms: _208  and  _210
REMARK   80  A    between atoms: _210  and  _211
REMARK   81  A    between atoms: _210  and  _213
REMARK   82  A    between atoms: _213  and  _214
REMARK   83  A    between atoms: _217  and  _219
REMARK   84  A    between atoms: _219  and  _220
REMARK   85  A    between atoms: _219  and  _222
REMARK   86  A    between atoms: _222  and  _223
REMARK   87  A    between atoms: _228  and  _230
REMARK   88  A    between atoms: _230  and  _231
REMARK   89  A    between atoms: _234  and  _236
REMARK   90  A    between atoms: _236  and  _237
REMARK   91  A    between atoms: _239  and  _241
REMARK   92  A    between atoms: _241  and  _242
REMARK   93  A    between atoms: _244  and  _246
REMARK   94  A    between atoms: _246  and  _247
REMARK   95  A    between atoms: _246  and  _249
REMARK   96  A    between atoms: _249  and  _250
REMARK   97  A    between atoms: _253  and  _255
REMARK   98  A    between atoms: _255  and  _256
REMARK   99  A    between atoms: _255  and  _258
REMARK  100  A    between atoms: _258  and  _259
REMARK  101  A    between atoms: _262  and  _264
REMARK  102  A    between atoms: _264  and  _265
REMARK  103  A    between atoms: _264  and  _267
REMARK  104  A    between atoms: _267  and  _268
REMARK  105  A    between atoms: _273  and  _275
REMARK  106  A    between atoms: _275  and  _276
REMARK  107  A    between atoms: _275  and  _278
REMARK  108  A    between atoms: _278  and  _279
REMARK  109  A    between atoms: _282  and  _284
REMARK  110  A    between atoms: _284  and  _285
REMARK  111  A    between atoms: _284  and  _287
REMARK  112  A    between atoms: _287  and  _288
REMARK  113  A    between atoms: _288  and  _289
REMARK  114  A    between atoms: _292  and  _294
REMARK  115  A    between atoms: _294  and  _295
REMARK  116  A    between atoms: _294  and  _297
REMARK  117  A    between atoms: _300  and  _302
REMARK  118  A    between atoms: _302  and  _303
REMARK  119  A    between atoms: _302  and  _305
REMARK  120  A    between atoms: _305  and  _306
REMARK  121  A    between atoms: _311  and  _313
REMARK  122  A    between atoms: _313  and  _314
REMARK  123  A    between atoms: _313  and  _316
REMARK  124  A    between atoms: _316  and  _317
REMARK  125  A    between atoms: _320  and  _322
REMARK  126  A    between atoms: _322  and  _323
REMARK  127  A    between atoms: _322  and  _325
REMARK  128  A    between atoms: _325  and  _326
REMARK  129  A    between atoms: _328  and  _330
REMARK  130  A    between atoms: _330  and  _331
REMARK  131  A    between atoms: _330  and  _333
REMARK  132  A    between atoms: _333  and  _334
REMARK  133  A    between atoms: _339  and  _341
REMARK  134  A    between atoms: _341  and  _342
REMARK  135  A    between atoms: _341  and  _344
REMARK  136  A    between atoms: _347  and  _349
REMARK  137  A    between atoms: _349  and  _350
REMARK  138  A    between atoms: _349  and  _352
REMARK  139  A    between atoms: _352  and  _353
REMARK  140  A    between atoms: _358  and  _360
REMARK  141  A    between atoms: _360  and  _361
REMARK  142  A    between atoms: _360  and  _363
REMARK  143  A    between atoms: _363  and  _364
REMARK  144  A    between atoms: _364  and  _365
REMARK  145  A    between atoms: _365  and  _366
REMARK  146  A    between atoms: _375  and  _377
REMARK  147  A    between atoms: _377  and  _378
REMARK  148  A    between atoms: _377  and  _380
REMARK  149  A    between atoms: _380  and  _381
REMARK  150  A    between atoms: _381  and  _382
REMARK  151  A    between atoms: _385  and  _387
REMARK  152  A    between atoms: _387  and  _388
REMARK  153  A    between atoms: _387  and  _390
REMARK  154  A    between atoms: _390  and  _391
REMARK  155  A    between atoms: _397  and  _399
REMARK  156  A    between atoms: _399  and  _400
REMARK  157  A    between atoms: _399  and  _402
REMARK  158  A    between atoms: _402  and  _403
REMARK  159  A    between atoms: _403  and  _404
REMARK  160  A    between atoms: _404  and  _405
REMARK  161  A    between atoms: _414  and  _416
REMARK  162  A    between atoms: _416  and  _417
REMARK  163  A    between atoms: _416  and  _419
REMARK  164  A    between atoms: _419  and  _420
REMARK  165  A    between atoms: _420  and  _421
REMARK  166  A    between atoms: _421  and  _422
REMARK  167  A    between atoms: _431  and  _433
REMARK  168  A    between atoms: _433  and  _434
REMARK  169  A    between atoms: _433  and  _436
REMARK  170  A    between atoms: _436  and  _437
REMARK  171  A    between atoms: _442  and  _444
REMARK  172  A    between atoms: _444  and  _445
REMARK  173  A    between atoms: _444  and  _447
REMARK  174  A    between atoms: _447  and  _448
REMARK  175  A    between atoms: _450  and  _452
REMARK  176  A    between atoms: _452  and  _453
REMARK  177  A    between atoms: _452  and  _455
REMARK  178  A    between atoms: _455  and  _456
REMARK  179  A    between atoms: _459  and  _461
REMARK  180  A    between atoms: _461  and  _462
REMARK  181  A    between atoms: _461  and  _464
REMARK  182  A    between atoms: _464  and  _465
REMARK  183  A    between atoms: _468  and  _470
REMARK  184  A    between atoms: _470  and  _471
REMARK  185  A    between atoms: _470  and  _473
REMARK  186  A    between atoms: _476  and  _478
REMARK  187  A    between atoms: _478  and  _479
REMARK  188  A    between atoms: _481  and  _483
REMARK  189  A    between atoms: _483  and  _484
REMARK  190  A    between atoms: _483  and  _486
REMARK  191  A    between atoms: _486  and  _487
REMARK  192  A    between atoms: _490  and  _492
REMARK  193  A    between atoms: _492  and  _493
REMARK  194  A    between atoms: _495  and  _497
REMARK  195  A    between atoms: _497  and  _498
REMARK  196  A    between atoms: _497  and  _500
REMARK  197  A    between atoms: _500  and  _501
REMARK  198  A    between atoms: _504  and  _506
REMARK  199  A    between atoms: _506  and  _507
REMARK  200  A    between atoms: _506  and  _509
REMARK  201  A    between atoms: _509  and  _510
REMARK  202  A    between atoms: _515  and  _516
REMARK  203  A    between atoms: _518  and  _520
REMARK  204  A    between atoms: _520  and  _521
REMARK  205  A    between atoms: _520  and  _523
REMARK  206  A    between atoms: _523  and  _524
REMARK  207  A    between atoms: _527  and  _529
REMARK  208  A    between atoms: _529  and  _530
REMARK  209  A    between atoms: _529  and  _532
REMARK  210  A    between atoms: _532  and  _533
REMARK  211  A    between atoms: _538  and  _540
REMARK  212  A    between atoms: _540  and  _541
REMARK  213  A    between atoms: _544  and  _546
REMARK  214  A    between atoms: _546  and  _547
REMARK  215  A    between atoms: _546  and  _549
REMARK  216  A    between atoms: _552  and  _554
REMARK  217  A    between atoms: _554  and  _555
REMARK  218  A    between atoms: _558  and  _560
REMARK  219  A    between atoms: _560  and  _561
REMARK  220  A    between atoms: _560  and  _563
REMARK  221  A    between atoms: _563  and  _564
REMARK  222  A    between atoms: _567  and  _569
REMARK  223  A    between atoms: _569  and  _570
REMARK  224  A    between atoms: _569  and  _572
REMARK  225  A    between atoms: _572  and  _573
REMARK  226  A    between atoms: _573  and  _574
REMARK  227  A    between atoms: _574  and  _575
REMARK  228  A    between atoms: _584  and  _586
REMARK  229  A    between atoms: _586  and  _587
REMARK  230  A    between atoms: _586  and  _589
REMARK  231  A    between atoms: _589  and  _590
REMARK  232  A    between atoms: _593  and  _595
REMARK  233  A    between atoms: _595  and  _596
REMARK  234  A    between atoms: _599  and  _601
REMARK  235  A    between atoms: _601  and  _602
REMARK  236  A    between atoms: _605  and  _607
REMARK  237  A    between atoms: _607  and  _608
REMARK  238  A    between atoms: _607  and  _610
REMARK  239  A    between atoms: _610  and  _611
REMARK  240  A    between atoms: _611  and  _612
REMARK                            x       y       z     vdW  Elec       q    Type
REMARK                         _______ _______ _______ _____ _____    ______ ____
ROOT
ATOM      1  O   HOH     1     -38.282 -56.056 -56.119  0.00  0.00    +0.000 OA
ENDROOT
TORSDOF 0
REMARK  Name = ../refined-set-2016/3n76/3n76_pocket.pdb
REMARK  240 active torsions:
REMARK  status: ('A' for Active; 'I' for Inactive)
REMARK    1  A    between atoms: _1  and  _3
REMARK    2  A    between atoms: _3  and  _4
REMARK    3  A    between atoms: _3  and  _6
REMARK    4  A    between atoms: _6  and  _7
REMARK    5  A    between atoms: _12  and  _14
REMARK    6  A    between atoms: _14  and  _15
REMARK    7  A    between atoms: _18  and  _19
REMARK    8  A    between atoms: _24  and  _26
REMARK    9  A    between atoms: _26  and  _27
REMARK   10  A    between atoms: _26  and  _29
REMARK   11  A    between atoms: _29  and  _30
REMARK   12  A    between atoms: _35  and  _37
REMARK   13  A    between atoms: _37  and  _38
REMARK   14  A    between atoms: _37  and  _40
REMARK   15  A    between atoms: _40  and  _41
REMARK   16  A    between atoms: _44  and  _46
REMARK   17  A    between atoms: _46  and  _47
REMARK   18  A    between atoms: _49  and  _51
REMARK   19  A    between atoms: _51  and  _52
REMARK   20  A    between atoms: _51  and  _54
REMARK   21  A    between atoms: _54  and  _55
REMARK   22  A    between atoms: _55  and  _56
REMARK   23  A    between atoms: _56  and  _57
REMARK   24  A    between atoms: _66  and  _68
REMARK   25  A    between atoms: _68  and  _69
REMARK   26  A    between atoms: _68  and  _71
REMARK   27  A    between atoms: _71  and  _72
REMARK   28  A    between atoms: _75  and  _77
REMARK   29  A    between atoms: _77  and  _78
REMARK   30  A    between atoms: _80  and  _82
REMARK   31  A    between atoms: _82  and  _83
REMARK   32  A    between atoms: _82  and  _85
REMARK   33  A    between atoms: _85  and  _86
REMARK   34  A    between atoms: _86  and  _87
REMARK   35  A    between atoms: _87  and  _88
REMARK   36  A    between atoms: _97  and  _99
REMARK   37  A    between atoms: _99  and  _100
REMARK   38  A    between atoms: _99  and  _102
REMARK   39  A    between atoms: _102  and  _103
REMARK   40  A    between atoms: _103  and  _104
REMARK   41  A    between atoms: _104  and  _105
REMARK   42  A    between atoms: _114  and  _116
REMARK   43  A    between atoms: _116  and  _117
REMARK   44  A    between atoms: _116  and  _119
REMARK   45  A    between atoms: _119  and  _120
REMARK   46  A    between atoms: _120  and  _121
REMARK   47  A    between atoms: _125  and  _126
REMARK   48  A    between atoms: _131  and  _133
REMARK   49  A    between atoms: _133  and  _134
REMARK   50  A    between atoms: _133  and  _136
REMARK   51  A    between atoms: _139  and  _141
REMARK   52  A    between atoms: _141  and  _142
REMARK   53  A    between atoms: _141  and  _144
REMARK   54  A    between atoms: _144  and  _145
REMARK   55  A    between atoms: _150  and  _151
REMARK   56  A    between atoms: _153  and  _155
REMARK   57  A    between atoms: _155  and  _156
REMARK   58  A    between atoms: _158  and  _160
REMARK   59  A    between atoms: _160  and  _161
REMARK   60  A    between atoms: _160  and  _163
REMARK   61  A    between atoms: _163  and  _164
REMARK   62  A    between atoms: _167  and  _169
REMARK   63  A    between atoms: _169  and  _170
REMARK   64  A    between atoms: _169  and  _172
REMARK   65  A    between atoms: _172  and  _173
REMARK   66  A    between atoms: _176  and  _178
REMARK   67  A    between atoms: _178  and  _179
REMARK   68  A    between atoms: _178  and  _181
REMARK   69  A    between atoms: _181  and  _182
REMARK   70  A    between atoms: _187  and  _189
REMARK   71  A    between atoms: _189  and  _190
REMARK   72  A    between atoms: _189  and  _192
REMARK   73  A    between atoms: _192  and  _193
REMARK   74  A    between atoms: _193  and  _194
REMARK   75  A    between atoms: _199  and  _201
REMARK   76  A    between atoms: _201  and  _202
REMARK   77  A    between atoms: _201  and  _204
REMARK   78  A    between atoms: _204  and  _205
REMARK   79  A    between atoms: _208  and  _210
REMARK   80  A    between atoms: _210  and  _211
REMARK   81  A    between atoms: _210  and  _213
REMARK   82  A    between atoms: _213  and  _214
REMARK   83  A    between atoms: _217  and  _219
REMARK   84  A    between atoms: _219  and  _220
REMARK   85  A    between atoms: _219  and  _222
REMARK   86  A    between atoms: _222  and  _223
REMARK   87  A    between atoms: _228  and  _230
REMARK   88  A    between atoms: _230  and  _231
REMARK   89  A    between atoms: _234  and  _236
REMARK   90  A    between atoms: _236  and  _237
REMARK   91  A    between atoms: _239  and  _241
REMARK   92  A    between atoms: _241  and  _242
REMARK   93  A    between atoms: _244  and  _246
REMARK   94  A    between atoms: _246  and  _247
REMARK   95  A    between atoms: _246  and  _249
REMARK   96  A    between atoms: _249  and  _250
REMARK   97  A    between atoms: _253  and  _255
REMARK   98  A    between atoms: _255  and  _256
REMARK   99  A    between atoms: _255  and  _258
REMARK  100  A    between atoms: _258  and  _259
REMARK  101  A    between atoms: _262  and  _264
REMARK  102  A    between atoms: _264  and  _265
REMARK  103  A    between atoms: _264  and  _267
REMARK  104  A    between atoms: _267  and  _268
REMARK  105  A    between atoms: _273  and  _275
REMARK  106  A    between atoms: _275  and  _276
REMARK  107  A    between atoms: _275  and  _278
REMARK  108  A    between atoms: _278  and  _279
REMARK  109  A    between atoms: _282  and  _284
REMARK  110  A    between atoms: _284  and  _285
REMARK  111  A    between atoms: _284  and  _287
REMARK  112  A    between atoms: _287  and  _288
REMARK  113  A    between atoms: _288  and  _289
REMARK  114  A    between atoms: _292  and  _294
REMARK  115  A    between atoms: _294  and  _295
REMARK  116  A    between atoms: _294  and  _297
REMARK  117  A    between atoms: _300  and  _302
REMARK  118  A    between atoms: _302  and  _303
REMARK  119  A    between atoms: _302  and  _305
REMARK  120  A    between atoms: _305  and  _306
REMARK  121  A    between atoms: _311  and  _313
REMARK  122  A    between atoms: _313  and  _314
REMARK  123  A    between atoms: _313  and  _316
REMARK  124  A    between atoms: _316  and  _317
REMARK  125  A    between atoms: _320  and  _322
REMARK  126  A    between atoms: _322  and  _323
REMARK  127  A    between atoms: _322  and  _325
REMARK  128  A    between atoms: _325  and  _326
REMARK  129  A    between atoms: _328  and  _330
REMARK  130  A    between atoms: _330  and  _331
REMARK  131  A    between atoms: _330  and  _333
REMARK  132  A    between atoms: _333  and  _334
REMARK  133  A    between atoms: _339  and  _341
REMARK  134  A    between atoms: _341  and  _342
REMARK  135  A    between atoms: _341  and  _344
REMARK  136  A    between atoms: _347  and  _349
REMARK  137  A    between atoms: _349  and  _350
REMARK  138  A    between atoms: _349  and  _352
REMARK  139  A    between atoms: _352  and  _353
REMARK  140  A    between atoms: _358  and  _360
REMARK  141  A    between atoms: _360  and  _361
REMARK  142  A    between atoms: _360  and  _363
REMARK  143  A    between atoms: _363  and  _364
REMARK  144  A    between atoms: _364  and  _365
REMARK  145  A    between atoms: _365  and  _366
REMARK  146  A    between atoms: _375  and  _377
REMARK  147  A    between atoms: _377  and  _378
REMARK  148  A    between atoms: _377  and  _380
REMARK  149  A    between atoms: _380  and  _381
REMARK  150  A    between atoms: _381  and  _382
REMARK  151  A    between atoms: _385  and  _387
REMARK  152  A    between atoms: _387  and  _388
REMARK  153  A    between atoms: _387  and  _390
REMARK  154  A    between atoms: _390  and  _391
REMARK  155  A    between atoms: _397  and  _399
REMARK  156  A    between atoms: _399  and  _400
REMARK  157  A    between atoms: _399  and  _402
REMARK  158  A    between atoms: _402  and  _403
REMARK  159  A    between atoms: _403  and  _404
REMARK  160  A    between atoms: _404  and  _405
REMARK  161  A    between atoms: _414  and  _416
REMARK  162  A    between atoms: _416  and  _417
REMARK  163  A    between atoms: _416  and  _419
REMARK  164  A    between atoms: _419  and  _420
REMARK  165  A    between atoms: _420  and  _421
REMARK  166  A    between atoms: _421  and  _422
REMARK  167  A    between atoms: _431  and  _433
REMARK  168  A    between atoms: _433  and  _434
REMARK  169  A    between atoms: _433  and  _436
REMARK  170  A    between atoms: _436  and  _437
REMARK  171  A    between atoms: _442  and  _444
REMARK  172  A    between atoms: _444  and  _445
REMARK  173  A    between atoms: _444  and  _447
REMARK  174  A    between atoms: _447  and  _448
REMARK  175  A    between atoms: _450  and  _452
REMARK  176  A    between atoms: _452  and  _453
REMARK  177  A    between atoms: _452  and  _455
REMARK  178  A    between atoms: _455  and  _456
REMARK  179  A    between atoms: _459  and  _461
REMARK  180  A    between atoms: _461  and  _462
REMARK  181  A    between atoms: _461  and  _464
REMARK  182  A    between atoms: _464  and  _465
REMARK  183  A    between atoms: _468  and  _470
REMARK  184  A    between atoms: _470  and  _471
REMARK  185  A    between atoms: _470  and  _473
REMARK  186  A    between atoms: _476  and  _478
REMARK  187  A    between atoms: _478  and  _479
REMARK  188  A    between atoms: _481  and  _483
REMARK  189  A    between atoms: _483  and  _484
REMARK  190  A    between atoms: _483  and  _486
REMARK  191  A    between atoms: _486  and  _487
REMARK  192  A    between atoms: _490  and  _492
REMARK  193  A    between atoms: _492  and  _493
REMARK  194  A    between atoms: _495  and  _497
REMARK  195  A    between atoms: _497  and  _498
REMARK  196  A    between atoms: _497  and  _500
REMARK  197  A    between atoms: _500  and  _501
REMARK  198  A    between atoms: _504  and  _506
REMARK  199  A    between atoms: _506  and  _507
REMARK  200  A    between atoms: _506  and  _509
REMARK  201  A    between atoms: _509  and  _510
REMARK  202  A    between atoms: _515  and  _516
REMARK  203  A    between atoms: _518  and  _520
REMARK  204  A    between atoms: _520  and  _521
REMARK  205  A    between atoms: _520  and  _523
REMARK  206  A    between atoms: _523  and  _524
REMARK  207  A    between atoms: _527  and  _529
REMARK  208  A    between atoms: _529  and  _530
REMARK  209  A    between atoms: _529  and  _532
REMARK  210  A    between atoms: _532  and  _533
REMARK  211  A    between atoms: _538  and  _540
REMARK  212  A    between atoms: _540  and  _541
REMARK  213  A    between atoms: _544  and  _546
REMARK  214  A    between atoms: _546  and  _547
REMARK  215  A    between atoms: _546  and  _549
REMARK  216  A    between atoms: _552  and  _554
REMARK  217  A    between atoms: _554  and  _555
REMARK  218  A    between atoms: _558  and  _560
REMARK  219  A    between atoms: _560  and  _561
REMARK  220  A    between atoms: _560  and  _563
REMARK  221  A    between atoms: _563  and  _564
REMARK  222  A    between atoms: _567  and  _569
REMARK  223  A    between atoms: _569  and  _570
REMARK  224  A    between atoms: _569  and  _572
REMARK  225  A    between atoms: _572  and  _573
REMARK  226  A    between atoms: _573  and  _574
REMARK  227  A    between atoms: _574  and  _575
REMARK  228  A    between atoms: _584  and  _586
REMARK  229  A    between atoms: _586  and  _587
REMARK  230  A    between atoms: _586  and  _589
REMARK  231  A    between atoms: _589  and  _590
REMARK  232  A    between atoms: _593  and  _595
REMARK  233  A    between atoms: _595  and  _596
REMARK  234  A    between atoms: _599  and  _601
REMARK  235  A    between atoms: _601  and  _602
REMARK  236  A    between atoms: _605  and  _607
REMARK  237  A    between atoms: _607  and  _608
REMARK  238  A    between atoms: _607  and  _610
REMARK  239  A    between atoms: _610  and  _611
REMARK  240  A    between atoms: _611  and  _612
REMARK                            x       y       z     vdW  Elec       q    Type
REMARK                         _______ _______ _______ _____ _____    ______ ____
ROOT
ATOM      1  O   HOH     1     -41.114 -60.442 -59.277  0.00  0.00    +0.000 OA
ENDROOT
TORSDOF 0
REMARK  Name = ../refined-set-2016/3n76/3n76_pocket.pdb
REMARK  240 active torsions:
REMARK  status: ('A' for Active; 'I' for Inactive)
REMARK    1  A    between atoms: _1  and  _3
REMARK    2  A    between atoms: _3  and  _4
REMARK    3  A    between atoms: _3  and  _6
REMARK    4  A    between atoms: _6  and  _7
REMARK    5  A    between atoms: _12  and  _14
REMARK    6  A    between atoms: _14  and  _15
REMARK    7  A    between atoms: _18  and  _19
REMARK    8  A    between atoms: _24  and  _26
REMARK    9  A    between atoms: _26  and  _27
REMARK   10  A    between atoms: _26  and  _29
REMARK   11  A    between atoms: _29  and  _30
REMARK   12  A    between atoms: _35  and  _37
REMARK   13  A    between atoms: _37  and  _38
REMARK   14  A    between atoms: _37  and  _40
REMARK   15  A    between atoms: _40  and  _41
REMARK   16  A    between atoms: _44  and  _46
REMARK   17  A    between atoms: _46  and  _47
REMARK   18  A    between atoms: _49  and  _51
REMARK   19  A    between atoms: _51  and  _52
REMARK   20  A    between atoms: _51  and  _54
REMARK   21  A    between atoms: _54  and  _55
REMARK   22  A    between atoms: _55  and  _56
REMARK   23  A    between atoms: _56  and  _57
REMARK   24  A    between atoms: _66  and  _68
REMARK   25  A    between atoms: _68  and  _69
REMARK   26  A    between atoms: _68  and  _71
REMARK   27  A    between atoms: _71  and  _72
REMARK   28  A    between atoms: _75  and  _77
REMARK   29  A    between atoms: _77  and  _78
REMARK   30  A    between atoms: _80  and  _82
REMARK   31  A    between atoms: _82  and  _83
REMARK   32  A    between atoms: _82  and  _85
REMARK   33  A    between atoms: _85  and  _86
REMARK   34  A    between atoms: _86  and  _87
REMARK   35  A    between atoms: _87  and  _88
REMARK   36  A    between atoms: _97  and  _99
REMARK   37  A    between atoms: _99  and  _100
REMARK   38  A    between atoms: _99  and  _102
REMARK   39  A    between atoms: _102  and  _103
REMARK   40  A    between atoms: _103  and  _104
REMARK   41  A    between atoms: _104  and  _105
REMARK   42  A    between atoms: _114  and  _116
REMARK   43  A    between atoms: _116  and  _117
REMARK   44  A    between atoms: _116  and  _119
REMARK   45  A    between atoms: _119  and  _120
REMARK   46  A    between atoms: _120  and  _121
REMARK   47  A    between atoms: _125  and  _126
REMARK   48  A    between atoms: _131  and  _133
REMARK   49  A    between atoms: _133  and  _134
REMARK   50  A    between atoms: _133  and  _136
REMARK   51  A    between atoms: _139  and  _141
REMARK   52  A    between atoms: _141  and  _142
REMARK   53  A    between atoms: _141  and  _144
REMARK   54  A    between atoms: _144  and  _145
REMARK   55  A    between atoms: _150  and  _151
REMARK   56  A    between atoms: _153  and  _155
REMARK   57  A    between atoms: _155  and  _156
REMARK   58  A    between atoms: _158  and  _160
REMARK   59  A    between atoms: _160  and  _161
REMARK   60  A    between atoms: _160  and  _163
REMARK   61  A    between atoms: _163  and  _164
REMARK   62  A    between atoms: _167  and  _169
REMARK   63  A    between atoms: _169  and  _170
REMARK   64  A    between atoms: _169  and  _172
REMARK   65  A    between atoms: _172  and  _173
REMARK   66  A    between atoms: _176  and  _178
REMARK   67  A    between atoms: _178  and  _179
REMARK   68  A    between atoms: _178  and  _181
REMARK   69  A    between atoms: _181  and  _182
REMARK   70  A    between atoms: _187  and  _189
REMARK   71  A    between atoms: _189  and  _190
REMARK   72  A    between atoms: _189  and  _192
REMARK   73  A    between atoms: _192  and  _193
REMARK   74  A    between atoms: _193  and  _194
REMARK   75  A    between atoms: _199  and  _201
REMARK   76  A    between atoms: _201  and  _202
REMARK   77  A    between atoms: _201  and  _204
REMARK   78  A    between atoms: _204  and  _205
REMARK   79  A    between atoms: _208  and  _210
REMARK   80  A    between atoms: _210  and  _211
REMARK   81  A    between atoms: _210  and  _213
REMARK   82  A    between atoms: _213  and  _214
REMARK   83  A    between atoms: _217  and  _219
REMARK   84  A    between atoms: _219  and  _220
REMARK   85  A    between atoms: _219  and  _222
REMARK   86  A    between atoms: _222  and  _223
REMARK   87  A    between atoms: _228  and  _230
REMARK   88  A    between atoms: _230  and  _231
REMARK   89  A    between atoms: _234  and  _236
REMARK   90  A    between atoms: _236  and  _237
REMARK   91  A    between atoms: _239  and  _241
REMARK   92  A    between atoms: _241  and  _242
REMARK   93  A    between atoms: _244  and  _246
REMARK   94  A    between atoms: _246  and  _247
REMARK   95  A    between atoms: _246  and  _249
REMARK   96  A    between atoms: _249  and  _250
REMARK   97  A    between atoms: _253  and  _255
REMARK   98  A    between atoms: _255  and  _256
REMARK   99  A    between atoms: _255  and  _258
REMARK  100  A    between atoms: _258  and  _259
REMARK  101  A    between atoms: _262  and  _264
REMARK  102  A    between atoms: _264  and  _265
REMARK  103  A    between atoms: _264  and  _267
REMARK  104  A    between atoms: _267  and  _268
REMARK  105  A    between atoms: _273  and  _275
REMARK  106  A    between atoms: _275  and  _276
REMARK  107  A    between atoms: _275  and  _278
REMARK  108  A    between atoms: _278  and  _279
REMARK  109  A    between atoms: _282  and  _284
REMARK  110  A    between atoms: _284  and  _285
REMARK  111  A    between atoms: _284  and  _287
REMARK  112  A    between atoms: _287  and  _288
REMARK  113  A    between atoms: _288  and  _289
REMARK  114  A    between atoms: _292  and  _294
REMARK  115  A    between atoms: _294  and  _295
REMARK  116  A    between atoms: _294  and  _297
REMARK  117  A    between atoms: _300  and  _302
REMARK  118  A    between atoms: _302  and  _303
REMARK  119  A    between atoms: _302  and  _305
REMARK  120  A    between atoms: _305  and  _306
REMARK  121  A    between atoms: _311  and  _313
REMARK  122  A    between atoms: _313  and  _314
REMARK  123  A    between atoms: _313  and  _316
REMARK  124  A    between atoms: _316  and  _317
REMARK  125  A    between atoms: _320  and  _322
REMARK  126  A    between atoms: _322  and  _323
REMARK  127  A    between atoms: _322  and  _325
REMARK  128  A    between atoms: _325  and  _326
REMARK  129  A    between atoms: _328  and  _330
REMARK  130  A    between atoms: _330  and  _331
REMARK  131  A    between atoms: _330  and  _333
REMARK  132  A    between atoms: _333  and  _334
REMARK  133  A    between atoms: _339  and  _341
REMARK  134  A    between atoms: _341  and  _342
REMARK  135  A    between atoms: _341  and  _344
REMARK  136  A    between atoms: _347  and  _349
REMARK  137  A    between atoms: _349  and  _350
REMARK  138  A    between atoms: _349  and  _352
REMARK  139  A    between atoms: _352  and  _353
REMARK  140  A    between atoms: _358  and  _360
REMARK  141  A    between atoms: _360  and  _361
REMARK  142  A    between atoms: _360  and  _363
REMARK  143  A    between atoms: _363  and  _364
REMARK  144  A    between atoms: _364  and  _365
REMARK  145  A    between atoms: _365  and  _366
REMARK  146  A    between atoms: _375  and  _377
REMARK  147  A    between atoms: _377  and  _378
REMARK  148  A    between atoms: _377  and  _380
REMARK  149  A    between atoms: _380  and  _381
REMARK  150  A    between atoms: _381  and  _382
REMARK  151  A    between atoms: _385  and  _387
REMARK  152  A    between atoms: _387  and  _388
REMARK  153  A    between atoms: _387  and  _390
REMARK  154  A    between atoms: _390  and  _391
REMARK  155  A    between atoms: _397  and  _399
REMARK  156  A    between atoms: _399  and  _400
REMARK  157  A    between atoms: _399  and  _402
REMARK  158  A    between atoms: _402  and  _403
REMARK  159  A    between atoms: _403  and  _404
REMARK  160  A    between atoms: _404  and  _405
REMARK  161  A    between atoms: _414  and  _416
REMARK  162  A    between atoms: _416  and  _417
REMARK  163  A    between atoms: _416  and  _419
REMARK  164  A    between atoms: _419  and  _420
REMARK  165  A    between atoms: _420  and  _421
REMARK  166  A    between atoms: _421  and  _422
REMARK  167  A    between atoms: _431  and  _433
REMARK  168  A    between atoms: _433  and  _434
REMARK  169  A    between atoms: _433  and  _436
REMARK  170  A    between atoms: _436  and  _437
REMARK  171  A    between atoms: _442  and  _444
REMARK  172  A    between atoms: _444  and  _445
REMARK  173  A    between atoms: _444  and  _447
REMARK  174  A    between atoms: _447  and  _448
REMARK  175  A    between atoms: _450  and  _452
REMARK  176  A    between atoms: _452  and  _453
REMARK  177  A    between atoms: _452  and  _455
REMARK  178  A    between atoms: _455  and  _456
REMARK  179  A    between atoms: _459  and  _461
REMARK  180  A    between atoms: _461  and  _462
REMARK  181  A    between atoms: _461  and  _464
REMARK  182  A    between atoms: _464  and  _465
REMARK  183  A    between atoms: _468  and  _470
REMARK  184  A    between atoms: _470  and  _471
REMARK  185  A    between atoms: _470  and  _473
REMARK  186  A    between atoms: _476  and  _478
REMARK  187  A    between atoms: _478  and  _479
REMARK  188  A    between atoms: _481  and  _483
REMARK  189  A    between atoms: _483  and  _484
REMARK  190  A    between atoms: _483  and  _486
REMARK  191  A    between atoms: _486  and  _487
REMARK  192  A    between atoms: _490  and  _492
REMARK  193  A    between atoms: _492  and  _493
REMARK  194  A    between atoms: _495  and  _497
REMARK  195  A    between atoms: _497  and  _498
REMARK  196  A    between atoms: _497  and  _500
REMARK  197  A    between atoms: _500  and  _501
REMARK  198  A    between atoms: _504  and  _506
REMARK  199  A    between atoms: _506  and  _507
REMARK  200  A    between atoms: _506  and  _509
REMARK  201  A    between atoms: _509  and  _510
REMARK  202  A    between atoms: _515  and  _516
REMARK  203  A    between atoms: _518  and  _520
REMARK  204  A    between atoms: _520  and  _521
REMARK  205  A    between atoms: _520  and  _523
REMARK  206  A    between atoms: _523  and  _524
REMARK  207  A    between atoms: _527  and  _529
REMARK  208  A    between atoms: _529  and  _530
REMARK  209  A    between atoms: _529  and  _532
REMARK  210  A    between atoms: _532  and  _533
REMARK  211  A    between atoms: _538  and  _540
REMARK  212  A    between atoms: _540  and  _541
REMARK  213  A    between atoms: _544  and  _546
REMARK  214  A    between atoms: _546  and  _547
REMARK  215  A    between atoms: _546  and  _549
REMARK  216  A    between atoms: _552  and  _554
REMARK  217  A    between atoms: _554  and  _555
REMARK  218  A    between atoms: _558  and  _560
REMARK  219  A    between atoms: _560  and  _561
REMARK  220  A    between atoms: _560  and  _563
REMARK  221  A    between atoms: _563  and  _564
REMARK  222  A    between atoms: _567  and  _569
REMARK  223  A    between atoms: _569  and  _570
REMARK  224  A    between atoms: _569  and  _572
REMARK  225  A    between atoms: _572  and  _573
REMARK  226  A    between atoms: _573  and  _574
REMARK  227  A    between atoms: _574  and  _575
REMARK  228  A    between atoms: _584  and  _586
REMARK  229  A    between atoms: _586  and  _587
REMARK  230  A    between atoms: _586  and  _589
REMARK  231  A    between atoms: _589  and  _590
REMARK  232  A    between atoms: _593  and  _595
REMARK  233  A    between atoms: _595  and  _596
REMARK  234  A    between atoms: _599  and  _601
REMARK  235  A    between atoms: _601  and  _602
REMARK  236  A    between atoms: _605  and  _607
REMARK  237  A    between atoms: _607  and  _608
REMARK  238  A    between atoms: _607  and  _610
REMARK  239  A    between atoms: _610  and  _611
REMARK  240  A    between atoms: _611  and  _612
REMARK                            x       y       z     vdW  Elec       q    Type
REMARK                         _______ _______ _______ _____ _____    ______ ____
ROOT
ATOM      1  O   HOH     1     -40.596 -66.981 -44.008  0.00  0.00    +0.000 OA
ENDROOT
TORSDOF 0
REMARK  Name = ../refined-set-2016/3n76/3n76_pocket.pdb
REMARK  240 active torsions:
REMARK  status: ('A' for Active; 'I' for Inactive)
REMARK    1  A    between atoms: _1  and  _3
REMARK    2  A    between atoms: _3  and  _4
REMARK    3  A    between atoms: _3  and  _6
REMARK    4  A    between atoms: _6  and  _7
REMARK    5  A    between atoms: _12  and  _14
REMARK    6  A    between atoms: _14  and  _15
REMARK    7  A    between atoms: _18  and  _19
REMARK    8  A    between atoms: _24  and  _26
REMARK    9  A    between atoms: _26  and  _27
REMARK   10  A    between atoms: _26  and  _29
REMARK   11  A    between atoms: _29  and  _30
REMARK   12  A    between atoms: _35  and  _37
REMARK   13  A    between atoms: _37  and  _38
REMARK   14  A    between atoms: _37  and  _40
REMARK   15  A    between atoms: _40  and  _41
REMARK   16  A    between atoms: _44  and  _46
REMARK   17  A    between atoms: _46  and  _47
REMARK   18  A    between atoms: _49  and  _51
REMARK   19  A    between atoms: _51  and  _52
REMARK   20  A    between atoms: _51  and  _54
REMARK   21  A    between atoms: _54  and  _55
REMARK   22  A    between atoms: _55  and  _56
REMARK   23  A    between atoms: _56  and  _57
REMARK   24  A    between atoms: _66  and  _68
REMARK   25  A    between atoms: _68  and  _69
REMARK   26  A    between atoms: _68  and  _71
REMARK   27  A    between atoms: _71  and  _72
REMARK   28  A    between atoms: _75  and  _77
REMARK   29  A    between atoms: _77  and  _78
REMARK   30  A    between atoms: _80  and  _82
REMARK   31  A    between atoms: _82  and  _83
REMARK   32  A    between atoms: _82  and  _85
REMARK   33  A    between atoms: _85  and  _86
REMARK   34  A    between atoms: _86  and  _87
REMARK   35  A    between atoms: _87  and  _88
REMARK   36  A    between atoms: _97  and  _99
REMARK   37  A    between atoms: _99  and  _100
REMARK   38  A    between atoms: _99  and  _102
REMARK   39  A    between atoms: _102  and  _103
REMARK   40  A    between atoms: _103  and  _104
REMARK   41  A    between atoms: _104  and  _105
REMARK   42  A    between atoms: _114  and  _116
REMARK   43  A    between atoms: _116  and  _117
REMARK   44  A    between atoms: _116  and  _119
REMARK   45  A    between atoms: _119  and  _120
REMARK   46  A    between atoms: _120  and  _121
REMARK   47  A    between atoms: _125  and  _126
REMARK   48  A    between atoms: _131  and  _133
REMARK   49  A    between atoms: _133  and  _134
REMARK   50  A    between atoms: _133  and  _136
REMARK   51  A    between atoms: _139  and  _141
REMARK   52  A    between atoms: _141  and  _142
REMARK   53  A    between atoms: _141  and  _144
REMARK   54  A    between atoms: _144  and  _145
REMARK   55  A    between atoms: _150  and  _151
REMARK   56  A    between atoms: _153  and  _155
REMARK   57  A    between atoms: _155  and  _156
REMARK   58  A    between atoms: _158  and  _160
REMARK   59  A    between atoms: _160  and  _161
REMARK   60  A    between atoms: _160  and  _163
REMARK   61  A    between atoms: _163  and  _164
REMARK   62  A    between atoms: _167  and  _169
REMARK   63  A    between atoms: _169  and  _170
REMARK   64  A    between atoms: _169  and  _172
REMARK   65  A    between atoms: _172  and  _173
REMARK   66  A    between atoms: _176  and  _178
REMARK   67  A    between atoms: _178  and  _179
REMARK   68  A    between atoms: _178  and  _181
REMARK   69  A    between atoms: _181  and  _182
REMARK   70  A    between atoms: _187  and  _189
REMARK   71  A    between atoms: _189  and  _190
REMARK   72  A    between atoms: _189  and  _192
REMARK   73  A    between atoms: _192  and  _193
REMARK   74  A    between atoms: _193  and  _194
REMARK   75  A    between atoms: _199  and  _201
REMARK   76  A    between atoms: _201  and  _202
REMARK   77  A    between atoms: _201  and  _204
REMARK   78  A    between atoms: _204  and  _205
REMARK   79  A    between atoms: _208  and  _210
REMARK   80  A    between atoms: _210  and  _211
REMARK   81  A    between atoms: _210  and  _213
REMARK   82  A    between atoms: _213  and  _214
REMARK   83  A    between atoms: _217  and  _219
REMARK   84  A    between atoms: _219  and  _220
REMARK   85  A    between atoms: _219  and  _222
REMARK   86  A    between atoms: _222  and  _223
REMARK   87  A    between atoms: _228  and  _230
REMARK   88  A    between atoms: _230  and  _231
REMARK   89  A    between atoms: _234  and  _236
REMARK   90  A    between atoms: _236  and  _237
REMARK   91  A    between atoms: _239  and  _241
REMARK   92  A    between atoms: _241  and  _242
REMARK   93  A    between atoms: _244  and  _246
REMARK   94  A    between atoms: _246  and  _247
REMARK   95  A    between atoms: _246  and  _249
REMARK   96  A    between atoms: _249  and  _250
REMARK   97  A    between atoms: _253  and  _255
REMARK   98  A    between atoms: _255  and  _256
REMARK   99  A    between atoms: _255  and  _258
REMARK  100  A    between atoms: _258  and  _259
REMARK  101  A    between atoms: _262  and  _264
REMARK  102  A    between atoms: _264  and  _265
REMARK  103  A    between atoms: _264  and  _267
REMARK  104  A    between atoms: _267  and  _268
REMARK  105  A    between atoms: _273  and  _275
REMARK  106  A    between atoms: _275  and  _276
REMARK  107  A    between atoms: _275  and  _278
REMARK  108  A    between atoms: _278  and  _279
REMARK  109  A    between atoms: _282  and  _284
REMARK  110  A    between atoms: _284  and  _285
REMARK  111  A    between atoms: _284  and  _287
REMARK  112  A    between atoms: _287  and  _288
REMARK  113  A    between atoms: _288  and  _289
REMARK  114  A    between atoms: _292  and  _294
REMARK  115  A    between atoms: _294  and  _295
REMARK  116  A    between atoms: _294  and  _297
REMARK  117  A    between atoms: _300  and  _302
REMARK  118  A    between atoms: _302  and  _303
REMARK  119  A    between atoms: _302  and  _305
REMARK  120  A    between atoms: _305  and  _306
REMARK  121  A    between atoms: _311  and  _313
REMARK  122  A    between atoms: _313  and  _314
REMARK  123  A    between atoms: _313  and  _316
REMARK  124  A    between atoms: _316  and  _317
REMARK  125  A    between atoms: _320  and  _322
REMARK  126  A    between atoms: _322  and  _323
REMARK  127  A    between atoms: _322  and  _325
REMARK  128  A    between atoms: _325  and  _326
REMARK  129  A    between atoms: _328  and  _330
REMARK  130  A    between atoms: _330  and  _331
REMARK  131  A    between atoms: _330  and  _333
REMARK  132  A    between atoms: _333  and  _334
REMARK  133  A    between atoms: _339  and  _341
REMARK  134  A    between atoms: _341  and  _342
REMARK  135  A    between atoms: _341  and  _344
REMARK  136  A    between atoms: _347  and  _349
REMARK  137  A    between atoms: _349  and  _350
REMARK  138  A    between atoms: _349  and  _352
REMARK  139  A    between atoms: _352  and  _353
REMARK  140  A    between atoms: _358  and  _360
REMARK  141  A    between atoms: _360  and  _361
REMARK  142  A    between atoms: _360  and  _363
REMARK  143  A    between atoms: _363  and  _364
REMARK  144  A    between atoms: _364  and  _365
REMARK  145  A    between atoms: _365  and  _366
REMARK  146  A    between atoms: _375  and  _377
REMARK  147  A    between atoms: _377  and  _378
REMARK  148  A    between atoms: _377  and  _380
REMARK  149  A    between atoms: _380  and  _381
REMARK  150  A    between atoms: _381  and  _382
REMARK  151  A    between atoms: _385  and  _387
REMARK  152  A    between atoms: _387  and  _388
REMARK  153  A    between atoms: _387  and  _390
REMARK  154  A    between atoms: _390  and  _391
REMARK  155  A    between atoms: _397  and  _399
REMARK  156  A    between atoms: _399  and  _400
REMARK  157  A    between atoms: _399  and  _402
REMARK  158  A    between atoms: _402  and  _403
REMARK  159  A    between atoms: _403  and  _404
REMARK  160  A    between atoms: _404  and  _405
REMARK  161  A    between atoms: _414  and  _416
REMARK  162  A    between atoms: _416  and  _417
REMARK  163  A    between atoms: _416  and  _419
REMARK  164  A    between atoms: _419  and  _420
REMARK  165  A    between atoms: _420  and  _421
REMARK  166  A    between atoms: _421  and  _422
REMARK  167  A    between atoms: _431  and  _433
REMARK  168  A    between atoms: _433  and  _434
REMARK  169  A    between atoms: _433  and  _436
REMARK  170  A    between atoms: _436  and  _437
REMARK  171  A    between atoms: _442  and  _444
REMARK  172  A    between atoms: _444  and  _445
REMARK  173  A    between atoms: _444  and  _447
REMARK  174  A    between atoms: _447  and  _448
REMARK  175  A    between atoms: _450  and  _452
REMARK  176  A    between atoms: _452  and  _453
REMARK  177  A    between atoms: _452  and  _455
REMARK  178  A    between atoms: _455  and  _456
REMARK  179  A    between atoms: _459  and  _461
REMARK  180  A    between atoms: _461  and  _462
REMARK  181  A    between atoms: _461  and  _464
REMARK  182  A    between atoms: _464  and  _465
REMARK  183  A    between atoms: _468  and  _470
REMARK  184  A    between atoms: _470  and  _471
REMARK  185  A    between atoms: _470  and  _473
REMARK  186  A    between atoms: _476  and  _478
REMARK  187  A    between atoms: _478  and  _479
REMARK  188  A    between atoms: _481  and  _483
REMARK  189  A    between atoms: _483  and  _484
REMARK  190  A    between atoms: _483  and  _486
REMARK  191  A    between atoms: _486  and  _487
REMARK  192  A    between atoms: _490  and  _492
REMARK  193  A    between atoms: _492  and  _493
REMARK  194  A    between atoms: _495  and  _497
REMARK  195  A    between atoms: _497  and  _498
REMARK  196  A    between atoms: _497  and  _500
REMARK  197  A    between atoms: _500  and  _501
REMARK  198  A    between atoms: _504  and  _506
REMARK  199  A    between atoms: _506  and  _507
REMARK  200  A    between atoms: _506  and  _509
REMARK  201  A    between atoms: _509  and  _510
REMARK  202  A    between atoms: _515  and  _516
REMARK  203  A    between atoms: _518  and  _520
REMARK  204  A    between atoms: _520  and  _521
REMARK  205  A    between atoms: _520  and  _523
REMARK  206  A    between atoms: _523  and  _524
REMARK  207  A    between atoms: _527  and  _529
REMARK  208  A    between atoms: _529  and  _530
REMARK  209  A    between atoms: _529  and  _532
REMARK  210  A    between atoms: _532  and  _533
REMARK  211  A    between atoms: _538  and  _540
REMARK  212  A    between atoms: _540  and  _541
REMARK  213  A    between atoms: _544  and  _546
REMARK  214  A    between atoms: _546  and  _547
REMARK  215  A    between atoms: _546  and  _549
REMARK  216  A    between atoms: _552  and  _554
REMARK  217  A    between atoms: _554  and  _555
REMARK  218  A    between atoms: _558  and  _560
REMARK  219  A    between atoms: _560  and  _561
REMARK  220  A    between atoms: _560  and  _563
REMARK  221  A    between atoms: _563  and  _564
REMARK  222  A    between atoms: _567  and  _569
REMARK  223  A    between atoms: _569  and  _570
REMARK  224  A    between atoms: _569  and  _572
REMARK  225  A    between atoms: _572  and  _573
REMARK  226  A    between atoms: _573  and  _574
REMARK  227  A    between atoms: _574  and  _575
REMARK  228  A    between atoms: _584  and  _586
REMARK  229  A    between atoms: _586  and  _587
REMARK  230  A    between atoms: _586  and  _589
REMARK  231  A    between atoms: _589  and  _590
REMARK  232  A    between atoms: _593  and  _595
REMARK  233  A    between atoms: _595  and  _596
REMARK  234  A    between atoms: _599  and  _601
REMARK  235  A    between atoms: _601  and  _602
REMARK  236  A    between atoms: _605  and  _607
REMARK  237  A    between atoms: _607  and  _608
REMARK  238  A    between atoms: _607  and  _610
REMARK  239  A    between atoms: _610  and  _611
REMARK  240  A    between atoms: _611  and  _612
REMARK                            x       y       z     vdW  Elec       q    Type
REMARK                         _______ _______ _______ _____ _____    ______ ____
ROOT
ATOM      1  O   HOH     1     -37.297 -69.498 -50.230  0.00  0.00    +0.000 OA
ENDROOT
TORSDOF 0
REMARK  Name = ../refined-set-2016/3n76/3n76_pocket.pdb
REMARK  240 active torsions:
REMARK  status: ('A' for Active; 'I' for Inactive)
REMARK    1  A    between atoms: _1  and  _3
REMARK    2  A    between atoms: _3  and  _4
REMARK    3  A    between atoms: _3  and  _6
REMARK    4  A    between atoms: _6  and  _7
REMARK    5  A    between atoms: _12  and  _14
REMARK    6  A    between atoms: _14  and  _15
REMARK    7  A    between atoms: _18  and  _19
REMARK    8  A    between atoms: _24  and  _26
REMARK    9  A    between atoms: _26  and  _27
REMARK   10  A    between atoms: _26  and  _29
REMARK   11  A    between atoms: _29  and  _30
REMARK   12  A    between atoms: _35  and  _37
REMARK   13  A    between atoms: _37  and  _38
REMARK   14  A    between atoms: _37  and  _40
REMARK   15  A    between atoms: _40  and  _41
REMARK   16  A    between atoms: _44  and  _46
REMARK   17  A    between atoms: _46  and  _47
REMARK   18  A    between atoms: _49  and  _51
REMARK   19  A    between atoms: _51  and  _52
REMARK   20  A    between atoms: _51  and  _54
REMARK   21  A    between atoms: _54  and  _55
REMARK   22  A    between atoms: _55  and  _56
REMARK   23  A    between atoms: _56  and  _57
REMARK   24  A    between atoms: _66  and  _68
REMARK   25  A    between atoms: _68  and  _69
REMARK   26  A    between atoms: _68  and  _71
REMARK   27  A    between atoms: _71  and  _72
REMARK   28  A    between atoms: _75  and  _77
REMARK   29  A    between atoms: _77  and  _78
REMARK   30  A    between atoms: _80  and  _82
REMARK   31  A    between atoms: _82  and  _83
REMARK   32  A    between atoms: _82  and  _85
REMARK   33  A    between atoms: _85  and  _86
REMARK   34  A    between atoms: _86  and  _87
REMARK   35  A    between atoms: _87  and  _88
REMARK   36  A    between atoms: _97  and  _99
REMARK   37  A    between atoms: _99  and  _100
REMARK   38  A    between atoms: _99  and  _102
REMARK   39  A    between atoms: _102  and  _103
REMARK   40  A    between atoms: _103  and  _104
REMARK   41  A    between atoms: _104  and  _105
REMARK   42  A    between atoms: _114  and  _116
REMARK   43  A    between atoms: _116  and  _117
REMARK   44  A    between atoms: _116  and  _119
REMARK   45  A    between atoms: _119  and  _120
REMARK   46  A    between atoms: _120  and  _121
REMARK   47  A    between atoms: _125  and  _126
REMARK   48  A    between atoms: _131  and  _133
REMARK   49  A    between atoms: _133  and  _134
REMARK   50  A    between atoms: _133  and  _136
REMARK   51  A    between atoms: _139  and  _141
REMARK   52  A    between atoms: _141  and  _142
REMARK   53  A    between atoms: _141  and  _144
REMARK   54  A    between atoms: _144  and  _145
REMARK   55  A    between atoms: _150  and  _151
REMARK   56  A    between atoms: _153  and  _155
REMARK   57  A    between atoms: _155  and  _156
REMARK   58  A    between atoms: _158  and  _160
REMARK   59  A    between atoms: _160  and  _161
REMARK   60  A    between atoms: _160  and  _163
REMARK   61  A    between atoms: _163  and  _164
REMARK   62  A    between atoms: _167  and  _169
REMARK   63  A    between atoms: _169  and  _170
REMARK   64  A    between atoms: _169  and  _172
REMARK   65  A    between atoms: _172  and  _173
REMARK   66  A    between atoms: _176  and  _178
REMARK   67  A    between atoms: _178  and  _179
REMARK   68  A    between atoms: _178  and  _181
REMARK   69  A    between atoms: _181  and  _182
REMARK   70  A    between atoms: _187  and  _189
REMARK   71  A    between atoms: _189  and  _190
REMARK   72  A    between atoms: _189  and  _192
REMARK   73  A    between atoms: _192  and  _193
REMARK   74  A    between atoms: _193  and  _194
REMARK   75  A    between atoms: _199  and  _201
REMARK   76  A    between atoms: _201  and  _202
REMARK   77  A    between atoms: _201  and  _204
REMARK   78  A    between atoms: _204  and  _205
REMARK   79  A    between atoms: _208  and  _210
REMARK   80  A    between atoms: _210  and  _211
REMARK   81  A    between atoms: _210  and  _213
REMARK   82  A    between atoms: _213  and  _214
REMARK   83  A    between atoms: _217  and  _219
REMARK   84  A    between atoms: _219  and  _220
REMARK   85  A    between atoms: _219  and  _222
REMARK   86  A    between atoms: _222  and  _223
REMARK   87  A    between atoms: _228  and  _230
REMARK   88  A    between atoms: _230  and  _231
REMARK   89  A    between atoms: _234  and  _236
REMARK   90  A    between atoms: _236  and  _237
REMARK   91  A    between atoms: _239  and  _241
REMARK   92  A    between atoms: _241  and  _242
REMARK   93  A    between atoms: _244  and  _246
REMARK   94  A    between atoms: _246  and  _247
REMARK   95  A    between atoms: _246  and  _249
REMARK   96  A    between atoms: _249  and  _250
REMARK   97  A    between atoms: _253  and  _255
REMARK   98  A    between atoms: _255  and  _256
REMARK   99  A    between atoms: _255  and  _258
REMARK  100  A    between atoms: _258  and  _259
REMARK  101  A    between atoms: _262  and  _264
REMARK  102  A    between atoms: _264  and  _265
REMARK  103  A    between atoms: _264  and  _267
REMARK  104  A    between atoms: _267  and  _268
REMARK  105  A    between atoms: _273  and  _275
REMARK  106  A    between atoms: _275  and  _276
REMARK  107  A    between atoms: _275  and  _278
REMARK  108  A    between atoms: _278  and  _279
REMARK  109  A    between atoms: _282  and  _284
REMARK  110  A    between atoms: _284  and  _285
REMARK  111  A    between atoms: _284  and  _287
REMARK  112  A    between atoms: _287  and  _288
REMARK  113  A    between atoms: _288  and  _289
REMARK  114  A    between atoms: _292  and  _294
REMARK  115  A    between atoms: _294  and  _295
REMARK  116  A    between atoms: _294  and  _297
REMARK  117  A    between atoms: _300  and  _302
REMARK  118  A    between atoms: _302  and  _303
REMARK  119  A    between atoms: _302  and  _305
REMARK  120  A    between atoms: _305  and  _306
REMARK  121  A    between atoms: _311  and  _313
REMARK  122  A    between atoms: _313  and  _314
REMARK  123  A    between atoms: _313  and  _316
REMARK  124  A    between atoms: _316  and  _317
REMARK  125  A    between atoms: _320  and  _322
REMARK  126  A    between atoms: _322  and  _323
REMARK  127  A    between atoms: _322  and  _325
REMARK  128  A    between atoms: _325  and  _326
REMARK  129  A    between atoms: _328  and  _330
REMARK  130  A    between atoms: _330  and  _331
REMARK  131  A    between atoms: _330  and  _333
REMARK  132  A    between atoms: _333  and  _334
REMARK  133  A    between atoms: _339  and  _341
REMARK  134  A    between atoms: _341  and  _342
REMARK  135  A    between atoms: _341  and  _344
REMARK  136  A    between atoms: _347  and  _349
REMARK  137  A    between atoms: _349  and  _350
REMARK  138  A    between atoms: _349  and  _352
REMARK  139  A    between atoms: _352  and  _353
REMARK  140  A    between atoms: _358  and  _360
REMARK  141  A    between atoms: _360  and  _361
REMARK  142  A    between atoms: _360  and  _363
REMARK  143  A    between atoms: _363  and  _364
REMARK  144  A    between atoms: _364  and  _365
REMARK  145  A    between atoms: _365  and  _366
REMARK  146  A    between atoms: _375  and  _377
REMARK  147  A    between atoms: _377  and  _378
REMARK  148  A    between atoms: _377  and  _380
REMARK  149  A    between atoms: _380  and  _381
REMARK  150  A    between atoms: _381  and  _382
REMARK  151  A    between atoms: _385  and  _387
REMARK  152  A    between atoms: _387  and  _388
REMARK  153  A    between atoms: _387  and  _390
REMARK  154  A    between atoms: _390  and  _391
REMARK  155  A    between atoms: _397  and  _399
REMARK  156  A    between atoms: _399  and  _400
REMARK  157  A    between atoms: _399  and  _402
REMARK  158  A    between atoms: _402  and  _403
REMARK  159  A    between atoms: _403  and  _404
REMARK  160  A    between atoms: _404  and  _405
REMARK  161  A    between atoms: _414  and  _416
REMARK  162  A    between atoms: _416  and  _417
REMARK  163  A    between atoms: _416  and  _419
REMARK  164  A    between atoms: _419  and  _420
REMARK  165  A    between atoms: _420  and  _421
REMARK  166  A    between atoms: _421  and  _422
REMARK  167  A    between atoms: _431  and  _433
REMARK  168  A    between atoms: _433  and  _434
REMARK  169  A    between atoms: _433  and  _436
REMARK  170  A    between atoms: _436  and  _437
REMARK  171  A    between atoms: _442  and  _444
REMARK  172  A    between atoms: _444  and  _445
REMARK  173  A    between atoms: _444  and  _447
REMARK  174  A    between atoms: _447  and  _448
REMARK  175  A    between atoms: _450  and  _452
REMARK  176  A    between atoms: _452  and  _453
REMARK  177  A    between atoms: _452  and  _455
REMARK  178  A    between atoms: _455  and  _456
REMARK  179  A    between atoms: _459  and  _461
REMARK  180  A    between atoms: _461  and  _462
REMARK  181  A    between atoms: _461  and  _464
REMARK  182  A    between atoms: _464  and  _465
REMARK  183  A    between atoms: _468  and  _470
REMARK  184  A    between atoms: _470  and  _471
REMARK  185  A    between atoms: _470  and  _473
REMARK  186  A    between atoms: _476  and  _478
REMARK  187  A    between atoms: _478  and  _479
REMARK  188  A    between atoms: _481  and  _483
REMARK  189  A    between atoms: _483  and  _484
REMARK  190  A    between atoms: _483  and  _486
REMARK  191  A    between atoms: _486  and  _487
REMARK  192  A    between atoms: _490  and  _492
REMARK  193  A    between atoms: _492  and  _493
REMARK  194  A    between atoms: _495  and  _497
REMARK  195  A    between atoms: _497  and  _498
REMARK  196  A    between atoms: _497  and  _500
REMARK  197  A    between atoms: _500  and  _501
REMARK  198  A    between atoms: _504  and  _506
REMARK  199  A    between atoms: _506  and  _507
REMARK  200  A    between atoms: _506  and  _509
REMARK  201  A    between atoms: _509  and  _510
REMARK  202  A    between atoms: _515  and  _516
REMARK  203  A    between atoms: _518  and  _520
REMARK  204  A    between atoms: _520  and  _521
REMARK  205  A    between atoms: _520  and  _523
REMARK  206  A    between atoms: _523  and  _524
REMARK  207  A    between atoms: _527  and  _529
REMARK  208  A    between atoms: _529  and  _530
REMARK  209  A    between atoms: _529  and  _532
REMARK  210  A    between atoms: _532  and  _533
REMARK  211  A    between atoms: _538  and  _540
REMARK  212  A    between atoms: _540  and  _541
REMARK  213  A    between atoms: _544  and  _546
REMARK  214  A    between atoms: _546  and  _547
REMARK  215  A    between atoms: _546  and  _549
REMARK  216  A    between atoms: _552  and  _554
REMARK  217  A    between atoms: _554  and  _555
REMARK  218  A    between atoms: _558  and  _560
REMARK  219  A    between atoms: _560  and  _561
REMARK  220  A    between atoms: _560  and  _563
REMARK  221  A    between atoms: _563  and  _564
REMARK  222  A    between atoms: _567  and  _569
REMARK  223  A    between atoms: _569  and  _570
REMARK  224  A    between atoms: _569  and  _572
REMARK  225  A    between atoms: _572  and  _573
REMARK  226  A    between atoms: _573  and  _574
REMARK  227  A    between atoms: _574  and  _575
REMARK  228  A    between atoms: _584  and  _586
REMARK  229  A    between atoms: _586  and  _587
REMARK  230  A    between atoms: _586  and  _589
REMARK  231  A    between atoms: _589  and  _590
REMARK  232  A    between atoms: _593  and  _595
REMARK  233  A    between atoms: _595  and  _596
REMARK  234  A    between atoms: _599  and  _601
REMARK  235  A    between atoms: _601  and  _602
REMARK  236  A    between atoms: _605  and  _607
REMARK  237  A    between atoms: _607  and  _608
REMARK  238  A    between atoms: _607  and  _610
REMARK  239  A    between atoms: _610  and  _611
REMARK  240  A    between atoms: _611  and  _612
REMARK                            x       y       z     vdW  Elec       q    Type
REMARK                         _______ _______ _______ _____ _____    ______ ____
ROOT
ATOM      1  O   HOH     1     -43.676 -60.635 -58.227  0.00  0.00    +0.000 OA
ENDROOT
TORSDOF 0
REMARK  Name = ../refined-set-2016/3n76/3n76_pocket.pdb
REMARK  240 active torsions:
REMARK  status: ('A' for Active; 'I' for Inactive)
REMARK    1  A    between atoms: _1  and  _3
REMARK    2  A    between atoms: _3  and  _4
REMARK    3  A    between atoms: _3  and  _6
REMARK    4  A    between atoms: _6  and  _7
REMARK    5  A    between atoms: _12  and  _14
REMARK    6  A    between atoms: _14  and  _15
REMARK    7  A    between atoms: _18  and  _19
REMARK    8  A    between atoms: _24  and  _26
REMARK    9  A    between atoms: _26  and  _27
REMARK   10  A    between atoms: _26  and  _29
REMARK   11  A    between atoms: _29  and  _30
REMARK   12  A    between atoms: _35  and  _37
REMARK   13  A    between atoms: _37  and  _38
REMARK   14  A    between atoms: _37  and  _40
REMARK   15  A    between atoms: _40  and  _41
REMARK   16  A    between atoms: _44  and  _46
REMARK   17  A    between atoms: _46  and  _47
REMARK   18  A    between atoms: _49  and  _51
REMARK   19  A    between atoms: _51  and  _52
REMARK   20  A    between atoms: _51  and  _54
REMARK   21  A    between atoms: _54  and  _55
REMARK   22  A    between atoms: _55  and  _56
REMARK   23  A    between atoms: _56  and  _57
REMARK   24  A    between atoms: _66  and  _68
REMARK   25  A    between atoms: _68  and  _69
REMARK   26  A    between atoms: _68  and  _71
REMARK   27  A    between atoms: _71  and  _72
REMARK   28  A    between atoms: _75  and  _77
REMARK   29  A    between atoms: _77  and  _78
REMARK   30  A    between atoms: _80  and  _82
REMARK   31  A    between atoms: _82  and  _83
REMARK   32  A    between atoms: _82  and  _85
REMARK   33  A    between atoms: _85  and  _86
REMARK   34  A    between atoms: _86  and  _87
REMARK   35  A    between atoms: _87  and  _88
REMARK   36  A    between atoms: _97  and  _99
REMARK   37  A    between atoms: _99  and  _100
REMARK   38  A    between atoms: _99  and  _102
REMARK   39  A    between atoms: _102  and  _103
REMARK   40  A    between atoms: _103  and  _104
REMARK   41  A    between atoms: _104  and  _105
REMARK   42  A    between atoms: _114  and  _116
REMARK   43  A    between atoms: _116  and  _117
REMARK   44  A    between atoms: _116  and  _119
REMARK   45  A    between atoms: _119  and  _120
REMARK   46  A    between atoms: _120  and  _121
REMARK   47  A    between atoms: _125  and  _126
REMARK   48  A    between atoms: _131  and  _133
REMARK   49  A    between atoms: _133  and  _134
REMARK   50  A    between atoms: _133  and  _136
REMARK   51  A    between atoms: _139  and  _141
REMARK   52  A    between atoms: _141  and  _142
REMARK   53  A    between atoms: _141  and  _144
REMARK   54  A    between atoms: _144  and  _145
REMARK   55  A    between atoms: _150  and  _151
REMARK   56  A    between atoms: _153  and  _155
REMARK   57  A    between atoms: _155  and  _156
REMARK   58  A    between atoms: _158  and  _160
REMARK   59  A    between atoms: _160  and  _161
REMARK   60  A    between atoms: _160  and  _163
REMARK   61  A    between atoms: _163  and  _164
REMARK   62  A    between atoms: _167  and  _169
REMARK   63  A    between atoms: _169  and  _170
REMARK   64  A    between atoms: _169  and  _172
REMARK   65  A    between atoms: _172  and  _173
REMARK   66  A    between atoms: _176  and  _178
REMARK   67  A    between atoms: _178  and  _179
REMARK   68  A    between atoms: _178  and  _181
REMARK   69  A    between atoms: _181  and  _182
REMARK   70  A    between atoms: _187  and  _189
REMARK   71  A    between atoms: _189  and  _190
REMARK   72  A    between atoms: _189  and  _192
REMARK   73  A    between atoms: _192  and  _193
REMARK   74  A    between atoms: _193  and  _194
REMARK   75  A    between atoms: _199  and  _201
REMARK   76  A    between atoms: _201  and  _202
REMARK   77  A    between atoms: _201  and  _204
REMARK   78  A    between atoms: _204  and  _205
REMARK   79  A    between atoms: _208  and  _210
REMARK   80  A    between atoms: _210  and  _211
REMARK   81  A    between atoms: _210  and  _213
REMARK   82  A    between atoms: _213  and  _214
REMARK   83  A    between atoms: _217  and  _219
REMARK   84  A    between atoms: _219  and  _220
REMARK   85  A    between atoms: _219  and  _222
REMARK   86  A    between atoms: _222  and  _223
REMARK   87  A    between atoms: _228  and  _230
REMARK   88  A    between atoms: _230  and  _231
REMARK   89  A    between atoms: _234  and  _236
REMARK   90  A    between atoms: _236  and  _237
REMARK   91  A    between atoms: _239  and  _241
REMARK   92  A    between atoms: _241  and  _242
REMARK   93  A    between atoms: _244  and  _246
REMARK   94  A    between atoms: _246  and  _247
REMARK   95  A    between atoms: _246  and  _249
REMARK   96  A    between atoms: _249  and  _250
REMARK   97  A    between atoms: _253  and  _255
REMARK   98  A    between atoms: _255  and  _256
REMARK   99  A    between atoms: _255  and  _258
REMARK  100  A    between atoms: _258  and  _259
REMARK  101  A    between atoms: _262  and  _264
REMARK  102  A    between atoms: _264  and  _265
REMARK  103  A    between atoms: _264  and  _267
REMARK  104  A    between atoms: _267  and  _268
REMARK  105  A    between atoms: _273  and  _275
REMARK  106  A    between atoms: _275  and  _276
REMARK  107  A    between atoms: _275  and  _278
REMARK  108  A    between atoms: _278  and  _279
REMARK  109  A    between atoms: _282  and  _284
REMARK  110  A    between atoms: _284  and  _285
REMARK  111  A    between atoms: _284  and  _287
REMARK  112  A    between atoms: _287  and  _288
REMARK  113  A    between atoms: _288  and  _289
REMARK  114  A    between atoms: _292  and  _294
REMARK  115  A    between atoms: _294  and  _295
REMARK  116  A    between atoms: _294  and  _297
REMARK  117  A    between atoms: _300  and  _302
REMARK  118  A    between atoms: _302  and  _303
REMARK  119  A    between atoms: _302  and  _305
REMARK  120  A    between atoms: _305  and  _306
REMARK  121  A    between atoms: _311  and  _313
REMARK  122  A    between atoms: _313  and  _314
REMARK  123  A    between atoms: _313  and  _316
REMARK  124  A    between atoms: _316  and  _317
REMARK  125  A    between atoms: _320  and  _322
REMARK  126  A    between atoms: _322  and  _323
REMARK  127  A    between atoms: _322  and  _325
REMARK  128  A    between atoms: _325  and  _326
REMARK  129  A    between atoms: _328  and  _330
REMARK  130  A    between atoms: _330  and  _331
REMARK  131  A    between atoms: _330  and  _333
REMARK  132  A    between atoms: _333  and  _334
REMARK  133  A    between atoms: _339  and  _341
REMARK  134  A    between atoms: _341  and  _342
REMARK  135  A    between atoms: _341  and  _344
REMARK  136  A    between atoms: _347  and  _349
REMARK  137  A    between atoms: _349  and  _350
REMARK  138  A    between atoms: _349  and  _352
REMARK  139  A    between atoms: _352  and  _353
REMARK  140  A    between atoms: _358  and  _360
REMARK  141  A    between atoms: _360  and  _361
REMARK  142  A    between atoms: _360  and  _363
REMARK  143  A    between atoms: _363  and  _364
REMARK  144  A    between atoms: _364  and  _365
REMARK  145  A    between atoms: _365  and  _366
REMARK  146  A    between atoms: _375  and  _377
REMARK  147  A    between atoms: _377  and  _378
REMARK  148  A    between atoms: _377  and  _380
REMARK  149  A    between atoms: _380  and  _381
REMARK  150  A    between atoms: _381  and  _382
REMARK  151  A    between atoms: _385  and  _387
REMARK  152  A    between atoms: _387  and  _388
REMARK  153  A    between atoms: _387  and  _390
REMARK  154  A    between atoms: _390  and  _391
REMARK  155  A    between atoms: _397  and  _399
REMARK  156  A    between atoms: _399  and  _400
REMARK  157  A    between atoms: _399  and  _402
REMARK  158  A    between atoms: _402  and  _403
REMARK  159  A    between atoms: _403  and  _404
REMARK  160  A    between atoms: _404  and  _405
REMARK  161  A    between atoms: _414  and  _416
REMARK  162  A    between atoms: _416  and  _417
REMARK  163  A    between atoms: _416  and  _419
REMARK  164  A    between atoms: _419  and  _420
REMARK  165  A    between atoms: _420  and  _421
REMARK  166  A    between atoms: _421  and  _422
REMARK  167  A    between atoms: _431  and  _433
REMARK  168  A    between atoms: _433  and  _434
REMARK  169  A    between atoms: _433  and  _436
REMARK  170  A    between atoms: _436  and  _437
REMARK  171  A    between atoms: _442  and  _444
REMARK  172  A    between atoms: _444  and  _445
REMARK  173  A    between atoms: _444  and  _447
REMARK  174  A    between atoms: _447  and  _448
REMARK  175  A    between atoms: _450  and  _452
REMARK  176  A    between atoms: _452  and  _453
REMARK  177  A    between atoms: _452  and  _455
REMARK  178  A    between atoms: _455  and  _456
REMARK  179  A    between atoms: _459  and  _461
REMARK  180  A    between atoms: _461  and  _462
REMARK  181  A    between atoms: _461  and  _464
REMARK  182  A    between atoms: _464  and  _465
REMARK  183  A    between atoms: _468  and  _470
REMARK  184  A    between atoms: _470  and  _471
REMARK  185  A    between atoms: _470  and  _473
REMARK  186  A    between atoms: _476  and  _478
REMARK  187  A    between atoms: _478  and  _479
REMARK  188  A    between atoms: _481  and  _483
REMARK  189  A    between atoms: _483  and  _484
REMARK  190  A    between atoms: _483  and  _486
REMARK  191  A    between atoms: _486  and  _487
REMARK  192  A    between atoms: _490  and  _492
REMARK  193  A    between atoms: _492  and  _493
REMARK  194  A    between atoms: _495  and  _497
REMARK  195  A    between atoms: _497  and  _498
REMARK  196  A    between atoms: _497  and  _500
REMARK  197  A    between atoms: _500  and  _501
REMARK  198  A    between atoms: _504  and  _506
REMARK  199  A    between atoms: _506  and  _507
REMARK  200  A    between atoms: _506  and  _509
REMARK  201  A    between atoms: _509  and  _510
REMARK  202  A    between atoms: _515  and  _516
REMARK  203  A    between atoms: _518  and  _520
REMARK  204  A    between atoms: _520  and  _521
REMARK  205  A    between atoms: _520  and  _523
REMARK  206  A    between atoms: _523  and  _524
REMARK  207  A    between atoms: _527  and  _529
REMARK  208  A    between atoms: _529  and  _530
REMARK  209  A    between atoms: _529  and  _532
REMARK  210  A    between atoms: _532  and  _533
REMARK  211  A    between atoms: _538  and  _540
REMARK  212  A    between atoms: _540  and  _541
REMARK  213  A    between atoms: _544  and  _546
REMARK  214  A    between atoms: _546  and  _547
REMARK  215  A    between atoms: _546  and  _549
REMARK  216  A    between atoms: _552  and  _554
REMARK  217  A    between atoms: _554  and  _555
REMARK  218  A    between atoms: _558  and  _560
REMARK  219  A    between atoms: _560  and  _561
REMARK  220  A    between atoms: _560  and  _563
REMARK  221  A    between atoms: _563  and  _564
REMARK  222  A    between atoms: _567  and  _569
REMARK  223  A    between atoms: _569  and  _570
REMARK  224  A    between atoms: _569  and  _572
REMARK  225  A    between atoms: _572  and  _573
REMARK  226  A    between atoms: _573  and  _574
REMARK  227  A    between atoms: _574  and  _575
REMARK  228  A    between atoms: _584  and  _586
REMARK  229  A    between atoms: _586  and  _587
REMARK  230  A    between atoms: _586  and  _589
REMARK  231  A    between atoms: _589  and  _590
REMARK  232  A    between atoms: _593  and  _595
REMARK  233  A    between atoms: _595  and  _596
REMARK  234  A    between atoms: _599  and  _601
REMARK  235  A    between atoms: _601  and  _602
REMARK  236  A    between atoms: _605  and  _607
REMARK  237  A    between atoms: _607  and  _608
REMARK  238  A    between atoms: _607  and  _610
REMARK  239  A    between atoms: _610  and  _611
REMARK  240  A    between atoms: _611  and  _612
REMARK                            x       y       z     vdW  Elec       q    Type
REMARK                         _______ _______ _______ _____ _____    ______ ____
ROOT
ATOM      1  O   HOH     1     -35.921 -66.924 -37.919  0.00  0.00    +0.000 OA
ENDROOT
TORSDOF 0
REMARK  Name = ../refined-set-2016/3n76/3n76_pocket.pdb
REMARK  240 active torsions:
REMARK  status: ('A' for Active; 'I' for Inactive)
REMARK    1  A    between atoms: _1  and  _3
REMARK    2  A    between atoms: _3  and  _4
REMARK    3  A    between atoms: _3  and  _6
REMARK    4  A    between atoms: _6  and  _7
REMARK    5  A    between atoms: _12  and  _14
REMARK    6  A    between atoms: _14  and  _15
REMARK    7  A    between atoms: _18  and  _19
REMARK    8  A    between atoms: _24  and  _26
REMARK    9  A    between atoms: _26  and  _27
REMARK   10  A    between atoms: _26  and  _29
REMARK   11  A    between atoms: _29  and  _30
REMARK   12  A    between atoms: _35  and  _37
REMARK   13  A    between atoms: _37  and  _38
REMARK   14  A    between atoms: _37  and  _40
REMARK   15  A    between atoms: _40  and  _41
REMARK   16  A    between atoms: _44  and  _46
REMARK   17  A    between atoms: _46  and  _47
REMARK   18  A    between atoms: _49  and  _51
REMARK   19  A    between atoms: _51  and  _52
REMARK   20  A    between atoms: _51  and  _54
REMARK   21  A    between atoms: _54  and  _55
REMARK   22  A    between atoms: _55  and  _56
REMARK   23  A    between atoms: _56  and  _57
REMARK   24  A    between atoms: _66  and  _68
REMARK   25  A    between atoms: _68  and  _69
REMARK   26  A    between atoms: _68  and  _71
REMARK   27  A    between atoms: _71  and  _72
REMARK   28  A    between atoms: _75  and  _77
REMARK   29  A    between atoms: _77  and  _78
REMARK   30  A    between atoms: _80  and  _82
REMARK   31  A    between atoms: _82  and  _83
REMARK   32  A    between atoms: _82  and  _85
REMARK   33  A    between atoms: _85  and  _86
REMARK   34  A    between atoms: _86  and  _87
REMARK   35  A    between atoms: _87  and  _88
REMARK   36  A    between atoms: _97  and  _99
REMARK   37  A    between atoms: _99  and  _100
REMARK   38  A    between atoms: _99  and  _102
REMARK   39  A    between atoms: _102  and  _103
REMARK   40  A    between atoms: _103  and  _104
REMARK   41  A    between atoms: _104  and  _105
REMARK   42  A    between atoms: _114  and  _116
REMARK   43  A    between atoms: _116  and  _117
REMARK   44  A    between atoms: _116  and  _119
REMARK   45  A    between atoms: _119  and  _120
REMARK   46  A    between atoms: _120  and  _121
REMARK   47  A    between atoms: _125  and  _126
REMARK   48  A    between atoms: _131  and  _133
REMARK   49  A    between atoms: _133  and  _134
REMARK   50  A    between atoms: _133  and  _136
REMARK   51  A    between atoms: _139  and  _141
REMARK   52  A    between atoms: _141  and  _142
REMARK   53  A    between atoms: _141  and  _144
REMARK   54  A    between atoms: _144  and  _145
REMARK   55  A    between atoms: _150  and  _151
REMARK   56  A    between atoms: _153  and  _155
REMARK   57  A    between atoms: _155  and  _156
REMARK   58  A    between atoms: _158  and  _160
REMARK   59  A    between atoms: _160  and  _161
REMARK   60  A    between atoms: _160  and  _163
REMARK   61  A    between atoms: _163  and  _164
REMARK   62  A    between atoms: _167  and  _169
REMARK   63  A    between atoms: _169  and  _170
REMARK   64  A    between atoms: _169  and  _172
REMARK   65  A    between atoms: _172  and  _173
REMARK   66  A    between atoms: _176  and  _178
REMARK   67  A    between atoms: _178  and  _179
REMARK   68  A    between atoms: _178  and  _181
REMARK   69  A    between atoms: _181  and  _182
REMARK   70  A    between atoms: _187  and  _189
REMARK   71  A    between atoms: _189  and  _190
REMARK   72  A    between atoms: _189  and  _192
REMARK   73  A    between atoms: _192  and  _193
REMARK   74  A    between atoms: _193  and  _194
REMARK   75  A    between atoms: _199  and  _201
REMARK   76  A    between atoms: _201  and  _202
REMARK   77  A    between atoms: _201  and  _204
REMARK   78  A    between atoms: _204  and  _205
REMARK   79  A    between atoms: _208  and  _210
REMARK   80  A    between atoms: _210  and  _211
REMARK   81  A    between atoms: _210  and  _213
REMARK   82  A    between atoms: _213  and  _214
REMARK   83  A    between atoms: _217  and  _219
REMARK   84  A    between atoms: _219  and  _220
REMARK   85  A    between atoms: _219  and  _222
REMARK   86  A    between atoms: _222  and  _223
REMARK   87  A    between atoms: _228  and  _230
REMARK   88  A    between atoms: _230  and  _231
REMARK   89  A    between atoms: _234  and  _236
REMARK   90  A    between atoms: _236  and  _237
REMARK   91  A    between atoms: _239  and  _241
REMARK   92  A    between atoms: _241  and  _242
REMARK   93  A    between atoms: _244  and  _246
REMARK   94  A    between atoms: _246  and  _247
REMARK   95  A    between atoms: _246  and  _249
REMARK   96  A    between atoms: _249  and  _250
REMARK   97  A    between atoms: _253  and  _255
REMARK   98  A    between atoms: _255  and  _256
REMARK   99  A    between atoms: _255  and  _258
REMARK  100  A    between atoms: _258  and  _259
REMARK  101  A    between atoms: _262  and  _264
REMARK  102  A    between atoms: _264  and  _265
REMARK  103  A    between atoms: _264  and  _267
REMARK  104  A    between atoms: _267  and  _268
REMARK  105  A    between atoms: _273  and  _275
REMARK  106  A    between atoms: _275  and  _276
REMARK  107  A    between atoms: _275  and  _278
REMARK  108  A    between atoms: _278  and  _279
REMARK  109  A    between atoms: _282  and  _284
REMARK  110  A    between atoms: _284  and  _285
REMARK  111  A    between atoms: _284  and  _287
REMARK  112  A    between atoms: _287  and  _288
REMARK  113  A    between atoms: _288  and  _289
REMARK  114  A    between atoms: _292  and  _294
REMARK  115  A    between atoms: _294  and  _295
REMARK  116  A    between atoms: _294  and  _297
REMARK  117  A    between atoms: _300  and  _302
REMARK  118  A    between atoms: _302  and  _303
REMARK  119  A    between atoms: _302  and  _305
REMARK  120  A    between atoms: _305  and  _306
REMARK  121  A    between atoms: _311  and  _313
REMARK  122  A    between atoms: _313  and  _314
REMARK  123  A    between atoms: _313  and  _316
REMARK  124  A    between atoms: _316  and  _317
REMARK  125  A    between atoms: _320  and  _322
REMARK  126  A    between atoms: _322  and  _323
REMARK  127  A    between atoms: _322  and  _325
REMARK  128  A    between atoms: _325  and  _326
REMARK  129  A    between atoms: _328  and  _330
REMARK  130  A    between atoms: _330  and  _331
REMARK  131  A    between atoms: _330  and  _333
REMARK  132  A    between atoms: _333  and  _334
REMARK  133  A    between atoms: _339  and  _341
REMARK  134  A    between atoms: _341  and  _342
REMARK  135  A    between atoms: _341  and  _344
REMARK  136  A    between atoms: _347  and  _349
REMARK  137  A    between atoms: _349  and  _350
REMARK  138  A    between atoms: _349  and  _352
REMARK  139  A    between atoms: _352  and  _353
REMARK  140  A    between atoms: _358  and  _360
REMARK  141  A    between atoms: _360  and  _361
REMARK  142  A    between atoms: _360  and  _363
REMARK  143  A    between atoms: _363  and  _364
REMARK  144  A    between atoms: _364  and  _365
REMARK  145  A    between atoms: _365  and  _366
REMARK  146  A    between atoms: _375  and  _377
REMARK  147  A    between atoms: _377  and  _378
REMARK  148  A    between atoms: _377  and  _380
REMARK  149  A    between atoms: _380  and  _381
REMARK  150  A    between atoms: _381  and  _382
REMARK  151  A    between atoms: _385  and  _387
REMARK  152  A    between atoms: _387  and  _388
REMARK  153  A    between atoms: _387  and  _390
REMARK  154  A    between atoms: _390  and  _391
REMARK  155  A    between atoms: _397  and  _399
REMARK  156  A    between atoms: _399  and  _400
REMARK  157  A    between atoms: _399  and  _402
REMARK  158  A    between atoms: _402  and  _403
REMARK  159  A    between atoms: _403  and  _404
REMARK  160  A    between atoms: _404  and  _405
REMARK  161  A    between atoms: _414  and  _416
REMARK  162  A    between atoms: _416  and  _417
REMARK  163  A    between atoms: _416  and  _419
REMARK  164  A    between atoms: _419  and  _420
REMARK  165  A    between atoms: _420  and  _421
REMARK  166  A    between atoms: _421  and  _422
REMARK  167  A    between atoms: _431  and  _433
REMARK  168  A    between atoms: _433  and  _434
REMARK  169  A    between atoms: _433  and  _436
REMARK  170  A    between atoms: _436  and  _437
REMARK  171  A    between atoms: _442  and  _444
REMARK  172  A    between atoms: _444  and  _445
REMARK  173  A    between atoms: _444  and  _447
REMARK  174  A    between atoms: _447  and  _448
REMARK  175  A    between atoms: _450  and  _452
REMARK  176  A    between atoms: _452  and  _453
REMARK  177  A    between atoms: _452  and  _455
REMARK  178  A    between atoms: _455  and  _456
REMARK  179  A    between atoms: _459  and  _461
REMARK  180  A    between atoms: _461  and  _462
REMARK  181  A    between atoms: _461  and  _464
REMARK  182  A    between atoms: _464  and  _465
REMARK  183  A    between atoms: _468  and  _470
REMARK  184  A    between atoms: _470  and  _471
REMARK  185  A    between atoms: _470  and  _473
REMARK  186  A    between atoms: _476  and  _478
REMARK  187  A    between atoms: _478  and  _479
REMARK  188  A    between atoms: _481  and  _483
REMARK  189  A    between atoms: _483  and  _484
REMARK  190  A    between atoms: _483  and  _486
REMARK  191  A    between atoms: _486  and  _487
REMARK  192  A    between atoms: _490  and  _492
REMARK  193  A    between atoms: _492  and  _493
REMARK  194  A    between atoms: _495  and  _497
REMARK  195  A    between atoms: _497  and  _498
REMARK  196  A    between atoms: _497  and  _500
REMARK  197  A    between atoms: _500  and  _501
REMARK  198  A    between atoms: _504  and  _506
REMARK  199  A    between atoms: _506  and  _507
REMARK  200  A    between atoms: _506  and  _509
REMARK  201  A    between atoms: _509  and  _510
REMARK  202  A    between atoms: _515  and  _516
REMARK  203  A    between atoms: _518  and  _520
REMARK  204  A    between atoms: _520  and  _521
REMARK  205  A    between atoms: _520  and  _523
REMARK  206  A    between atoms: _523  and  _524
REMARK  207  A    between atoms: _527  and  _529
REMARK  208  A    between atoms: _529  and  _530
REMARK  209  A    between atoms: _529  and  _532
REMARK  210  A    between atoms: _532  and  _533
REMARK  211  A    between atoms: _538  and  _540
REMARK  212  A    between atoms: _540  and  _541
REMARK  213  A    between atoms: _544  and  _546
REMARK  214  A    between atoms: _546  and  _547
REMARK  215  A    between atoms: _546  and  _549
REMARK  216  A    between atoms: _552  and  _554
REMARK  217  A    between atoms: _554  and  _555
REMARK  218  A    between atoms: _558  and  _560
REMARK  219  A    between atoms: _560  and  _561
REMARK  220  A    between atoms: _560  and  _563
REMARK  221  A    between atoms: _563  and  _564
REMARK  222  A    between atoms: _567  and  _569
REMARK  223  A    between atoms: _569  and  _570
REMARK  224  A    between atoms: _569  and  _572
REMARK  225  A    between atoms: _572  and  _573
REMARK  226  A    between atoms: _573  and  _574
REMARK  227  A    between atoms: _574  and  _575
REMARK  228  A    between atoms: _584  and  _586
REMARK  229  A    between atoms: _586  and  _587
REMARK  230  A    between atoms: _586  and  _589
REMARK  231  A    between atoms: _589  and  _590
REMARK  232  A    between atoms: _593  and  _595
REMARK  233  A    between atoms: _595  and  _596
REMARK  234  A    between atoms: _599  and  _601
REMARK  235  A    between atoms: _601  and  _602
REMARK  236  A    between atoms: _605  and  _607
REMARK  237  A    between atoms: _607  and  _608
REMARK  238  A    between atoms: _607  and  _610
REMARK  239  A    between atoms: _610  and  _611
REMARK  240  A    between atoms: _611  and  _612
REMARK                            x       y       z     vdW  Elec       q    Type
REMARK                         _______ _______ _______ _____ _____    ______ ____
ROOT
ATOM      1  O   HOH     1     -32.712 -68.482 -50.496  0.00  0.00    +0.000 OA
ENDROOT
TORSDOF 0
REMARK  Name = ../refined-set-2016/3n76/3n76_pocket.pdb
REMARK  240 active torsions:
REMARK  status: ('A' for Active; 'I' for Inactive)
REMARK    1  A    between atoms: _1  and  _3
REMARK    2  A    between atoms: _3  and  _4
REMARK    3  A    between atoms: _3  and  _6
REMARK    4  A    between atoms: _6  and  _7
REMARK    5  A    between atoms: _12  and  _14
REMARK    6  A    between atoms: _14  and  _15
REMARK    7  A    between atoms: _18  and  _19
REMARK    8  A    between atoms: _24  and  _26
REMARK    9  A    between atoms: _26  and  _27
REMARK   10  A    between atoms: _26  and  _29
REMARK   11  A    between atoms: _29  and  _30
REMARK   12  A    between atoms: _35  and  _37
REMARK   13  A    between atoms: _37  and  _38
REMARK   14  A    between atoms: _37  and  _40
REMARK   15  A    between atoms: _40  and  _41
REMARK   16  A    between atoms: _44  and  _46
REMARK   17  A    between atoms: _46  and  _47
REMARK   18  A    between atoms: _49  and  _51
REMARK   19  A    between atoms: _51  and  _52
REMARK   20  A    between atoms: _51  and  _54
REMARK   21  A    between atoms: _54  and  _55
REMARK   22  A    between atoms: _55  and  _56
REMARK   23  A    between atoms: _56  and  _57
REMARK   24  A    between atoms: _66  and  _68
REMARK   25  A    between atoms: _68  and  _69
REMARK   26  A    between atoms: _68  and  _71
REMARK   27  A    between atoms: _71  and  _72
REMARK   28  A    between atoms: _75  and  _77
REMARK   29  A    between atoms: _77  and  _78
REMARK   30  A    between atoms: _80  and  _82
REMARK   31  A    between atoms: _82  and  _83
REMARK   32  A    between atoms: _82  and  _85
REMARK   33  A    between atoms: _85  and  _86
REMARK   34  A    between atoms: _86  and  _87
REMARK   35  A    between atoms: _87  and  _88
REMARK   36  A    between atoms: _97  and  _99
REMARK   37  A    between atoms: _99  and  _100
REMARK   38  A    between atoms: _99  and  _102
REMARK   39  A    between atoms: _102  and  _103
REMARK   40  A    between atoms: _103  and  _104
REMARK   41  A    between atoms: _104  and  _105
REMARK   42  A    between atoms: _114  and  _116
REMARK   43  A    between atoms: _116  and  _117
REMARK   44  A    between atoms: _116  and  _119
REMARK   45  A    between atoms: _119  and  _120
REMARK   46  A    between atoms: _120  and  _121
REMARK   47  A    between atoms: _125  and  _126
REMARK   48  A    between atoms: _131  and  _133
REMARK   49  A    between atoms: _133  and  _134
REMARK   50  A    between atoms: _133  and  _136
REMARK   51  A    between atoms: _139  and  _141
REMARK   52  A    between atoms: _141  and  _142
REMARK   53  A    between atoms: _141  and  _144
REMARK   54  A    between atoms: _144  and  _145
REMARK   55  A    between atoms: _150  and  _151
REMARK   56  A    between atoms: _153  and  _155
REMARK   57  A    between atoms: _155  and  _156
REMARK   58  A    between atoms: _158  and  _160
REMARK   59  A    between atoms: _160  and  _161
REMARK   60  A    between atoms: _160  and  _163
REMARK   61  A    between atoms: _163  and  _164
REMARK   62  A    between atoms: _167  and  _169
REMARK   63  A    between atoms: _169  and  _170
REMARK   64  A    between atoms: _169  and  _172
REMARK   65  A    between atoms: _172  and  _173
REMARK   66  A    between atoms: _176  and  _178
REMARK   67  A    between atoms: _178  and  _179
REMARK   68  A    between atoms: _178  and  _181
REMARK   69  A    between atoms: _181  and  _182
REMARK   70  A    between atoms: _187  and  _189
REMARK   71  A    between atoms: _189  and  _190
REMARK   72  A    between atoms: _189  and  _192
REMARK   73  A    between atoms: _192  and  _193
REMARK   74  A    between atoms: _193  and  _194
REMARK   75  A    between atoms: _199  and  _201
REMARK   76  A    between atoms: _201  and  _202
REMARK   77  A    between atoms: _201  and  _204
REMARK   78  A    between atoms: _204  and  _205
REMARK   79  A    between atoms: _208  and  _210
REMARK   80  A    between atoms: _210  and  _211
REMARK   81  A    between atoms: _210  and  _213
REMARK   82  A    between atoms: _213  and  _214
REMARK   83  A    between atoms: _217  and  _219
REMARK   84  A    between atoms: _219  and  _220
REMARK   85  A    between atoms: _219  and  _222
REMARK   86  A    between atoms: _222  and  _223
REMARK   87  A    between atoms: _228  and  _230
REMARK   88  A    between atoms: _230  and  _231
REMARK   89  A    between atoms: _234  and  _236
REMARK   90  A    between atoms: _236  and  _237
REMARK   91  A    between atoms: _239  and  _241
REMARK   92  A    between atoms: _241  and  _242
REMARK   93  A    between atoms: _244  and  _246
REMARK   94  A    between atoms: _246  and  _247
REMARK   95  A    between atoms: _246  and  _249
REMARK   96  A    between atoms: _249  and  _250
REMARK   97  A    between atoms: _253  and  _255
REMARK   98  A    between atoms: _255  and  _256
REMARK   99  A    between atoms: _255  and  _258
REMARK  100  A    between atoms: _258  and  _259
REMARK  101  A    between atoms: _262  and  _264
REMARK  102  A    between atoms: _264  and  _265
REMARK  103  A    between atoms: _264  and  _267
REMARK  104  A    between atoms: _267  and  _268
REMARK  105  A    between atoms: _273  and  _275
REMARK  106  A    between atoms: _275  and  _276
REMARK  107  A    between atoms: _275  and  _278
REMARK  108  A    between atoms: _278  and  _279
REMARK  109  A    between atoms: _282  and  _284
REMARK  110  A    between atoms: _284  and  _285
REMARK  111  A    between atoms: _284  and  _287
REMARK  112  A    between atoms: _287  and  _288
REMARK  113  A    between atoms: _288  and  _289
REMARK  114  A    between atoms: _292  and  _294
REMARK  115  A    between atoms: _294  and  _295
REMARK  116  A    between atoms: _294  and  _297
REMARK  117  A    between atoms: _300  and  _302
REMARK  118  A    between atoms: _302  and  _303
REMARK  119  A    between atoms: _302  and  _305
REMARK  120  A    between atoms: _305  and  _306
REMARK  121  A    between atoms: _311  and  _313
REMARK  122  A    between atoms: _313  and  _314
REMARK  123  A    between atoms: _313  and  _316
REMARK  124  A    between atoms: _316  and  _317
REMARK  125  A    between atoms: _320  and  _322
REMARK  126  A    between atoms: _322  and  _323
REMARK  127  A    between atoms: _322  and  _325
REMARK  128  A    between atoms: _325  and  _326
REMARK  129  A    between atoms: _328  and  _330
REMARK  130  A    between atoms: _330  and  _331
REMARK  131  A    between atoms: _330  and  _333
REMARK  132  A    between atoms: _333  and  _334
REMARK  133  A    between atoms: _339  and  _341
REMARK  134  A    between atoms: _341  and  _342
REMARK  135  A    between atoms: _341  and  _344
REMARK  136  A    between atoms: _347  and  _349
REMARK  137  A    between atoms: _349  and  _350
REMARK  138  A    between atoms: _349  and  _352
REMARK  139  A    between atoms: _352  and  _353
REMARK  140  A    between atoms: _358  and  _360
REMARK  141  A    between atoms: _360  and  _361
REMARK  142  A    between atoms: _360  and  _363
REMARK  143  A    between atoms: _363  and  _364
REMARK  144  A    between atoms: _364  and  _365
REMARK  145  A    between atoms: _365  and  _366
REMARK  146  A    between atoms: _375  and  _377
REMARK  147  A    between atoms: _377  and  _378
REMARK  148  A    between atoms: _377  and  _380
REMARK  149  A    between atoms: _380  and  _381
REMARK  150  A    between atoms: _381  and  _382
REMARK  151  A    between atoms: _385  and  _387
REMARK  152  A    between atoms: _387  and  _388
REMARK  153  A    between atoms: _387  and  _390
REMARK  154  A    between atoms: _390  and  _391
REMARK  155  A    between atoms: _397  and  _399
REMARK  156  A    between atoms: _399  and  _400
REMARK  157  A    between atoms: _399  and  _402
REMARK  158  A    between atoms: _402  and  _403
REMARK  159  A    between atoms: _403  and  _404
REMARK  160  A    between atoms: _404  and  _405
REMARK  161  A    between atoms: _414  and  _416
REMARK  162  A    between atoms: _416  and  _417
REMARK  163  A    between atoms: _416  and  _419
REMARK  164  A    between atoms: _419  and  _420
REMARK  165  A    between atoms: _420  and  _421
REMARK  166  A    between atoms: _421  and  _422
REMARK  167  A    between atoms: _431  and  _433
REMARK  168  A    between atoms: _433  and  _434
REMARK  169  A    between atoms: _433  and  _436
REMARK  170  A    between atoms: _436  and  _437
REMARK  171  A    between atoms: _442  and  _444
REMARK  172  A    between atoms: _444  and  _445
REMARK  173  A    between atoms: _444  and  _447
REMARK  174  A    between atoms: _447  and  _448
REMARK  175  A    between atoms: _450  and  _452
REMARK  176  A    between atoms: _452  and  _453
REMARK  177  A    between atoms: _452  and  _455
REMARK  178  A    between atoms: _455  and  _456
REMARK  179  A    between atoms: _459  and  _461
REMARK  180  A    between atoms: _461  and  _462
REMARK  181  A    between atoms: _461  and  _464
REMARK  182  A    between atoms: _464  and  _465
REMARK  183  A    between atoms: _468  and  _470
REMARK  184  A    between atoms: _470  and  _471
REMARK  185  A    between atoms: _470  and  _473
REMARK  186  A    between atoms: _476  and  _478
REMARK  187  A    between atoms: _478  and  _479
REMARK  188  A    between atoms: _481  and  _483
REMARK  189  A    between atoms: _483  and  _484
REMARK  190  A    between atoms: _483  and  _486
REMARK  191  A    between atoms: _486  and  _487
REMARK  192  A    between atoms: _490  and  _492
REMARK  193  A    between atoms: _492  and  _493
REMARK  194  A    between atoms: _495  and  _497
REMARK  195  A    between atoms: _497  and  _498
REMARK  196  A    between atoms: _497  and  _500
REMARK  197  A    between atoms: _500  and  _501
REMARK  198  A    between atoms: _504  and  _506
REMARK  199  A    between atoms: _506  and  _507
REMARK  200  A    between atoms: _506  and  _509
REMARK  201  A    between atoms: _509  and  _510
REMARK  202  A    between atoms: _515  and  _516
REMARK  203  A    between atoms: _518  and  _520
REMARK  204  A    between atoms: _520  and  _521
REMARK  205  A    between atoms: _520  and  _523
REMARK  206  A    between atoms: _523  and  _524
REMARK  207  A    between atoms: _527  and  _529
REMARK  208  A    between atoms: _529  and  _530
REMARK  209  A    between atoms: _529  and  _532
REMARK  210  A    between atoms: _532  and  _533
REMARK  211  A    between atoms: _538  and  _540
REMARK  212  A    between atoms: _540  and  _541
REMARK  213  A    between atoms: _544  and  _546
REMARK  214  A    between atoms: _546  and  _547
REMARK  215  A    between atoms: _546  and  _549
REMARK  216  A    between atoms: _552  and  _554
REMARK  217  A    between atoms: _554  and  _555
REMARK  218  A    between atoms: _558  and  _560
REMARK  219  A    between atoms: _560  and  _561
REMARK  220  A    between atoms: _560  and  _563
REMARK  221  A    between atoms: _563  and  _564
REMARK  222  A    between atoms: _567  and  _569
REMARK  223  A    between atoms: _569  and  _570
REMARK  224  A    between atoms: _569  and  _572
REMARK  225  A    between atoms: _572  and  _573
REMARK  226  A    between atoms: _573  and  _574
REMARK  227  A    between atoms: _574  and  _575
REMARK  228  A    between atoms: _584  and  _586
REMARK  229  A    between atoms: _586  and  _587
REMARK  230  A    between atoms: _586  and  _589
REMARK  231  A    between atoms: _589  and  _590
REMARK  232  A    between atoms: _593  and  _595
REMARK  233  A    between atoms: _595  and  _596
REMARK  234  A    between atoms: _599  and  _601
REMARK  235  A    between atoms: _601  and  _602
REMARK  236  A    between atoms: _605  and  _607
REMARK  237  A    between atoms: _607  and  _608
REMARK  238  A    between atoms: _607  and  _610
REMARK  239  A    between atoms: _610  and  _611
REMARK  240  A    between atoms: _611  and  _612
REMARK                            x       y       z     vdW  Elec       q    Type
REMARK                         _______ _______ _______ _____ _____    ______ ____
ROOT
ATOM      1  O   HOH     1     -40.234 -69.368 -49.966  0.00  0.00    +0.000 OA
ENDROOT
TORSDOF 0
REMARK  Name = ../refined-set-2016/3n76/3n76_pocket.pdb
REMARK  240 active torsions:
REMARK  status: ('A' for Active; 'I' for Inactive)
REMARK    1  A    between atoms: _1  and  _3
REMARK    2  A    between atoms: _3  and  _4
REMARK    3  A    between atoms: _3  and  _6
REMARK    4  A    between atoms: _6  and  _7
REMARK    5  A    between atoms: _12  and  _14
REMARK    6  A    between atoms: _14  and  _15
REMARK    7  A    between atoms: _18  and  _19
REMARK    8  A    between atoms: _24  and  _26
REMARK    9  A    between atoms: _26  and  _27
REMARK   10  A    between atoms: _26  and  _29
REMARK   11  A    between atoms: _29  and  _30
REMARK   12  A    between atoms: _35  and  _37
REMARK   13  A    between atoms: _37  and  _38
REMARK   14  A    between atoms: _37  and  _40
REMARK   15  A    between atoms: _40  and  _41
REMARK   16  A    between atoms: _44  and  _46
REMARK   17  A    between atoms: _46  and  _47
REMARK   18  A    between atoms: _49  and  _51
REMARK   19  A    between atoms: _51  and  _52
REMARK   20  A    between atoms: _51  and  _54
REMARK   21  A    between atoms: _54  and  _55
REMARK   22  A    between atoms: _55  and  _56
REMARK   23  A    between atoms: _56  and  _57
REMARK   24  A    between atoms: _66  and  _68
REMARK   25  A    between atoms: _68  and  _69
REMARK   26  A    between atoms: _68  and  _71
REMARK   27  A    between atoms: _71  and  _72
REMARK   28  A    between atoms: _75  and  _77
REMARK   29  A    between atoms: _77  and  _78
REMARK   30  A    between atoms: _80  and  _82
REMARK   31  A    between atoms: _82  and  _83
REMARK   32  A    between atoms: _82  and  _85
REMARK   33  A    between atoms: _85  and  _86
REMARK   34  A    between atoms: _86  and  _87
REMARK   35  A    between atoms: _87  and  _88
REMARK   36  A    between atoms: _97  and  _99
REMARK   37  A    between atoms: _99  and  _100
REMARK   38  A    between atoms: _99  and  _102
REMARK   39  A    between atoms: _102  and  _103
REMARK   40  A    between atoms: _103  and  _104
REMARK   41  A    between atoms: _104  and  _105
REMARK   42  A    between atoms: _114  and  _116
REMARK   43  A    between atoms: _116  and  _117
REMARK   44  A    between atoms: _116  and  _119
REMARK   45  A    between atoms: _119  and  _120
REMARK   46  A    between atoms: _120  and  _121
REMARK   47  A    between atoms: _125  and  _126
REMARK   48  A    between atoms: _131  and  _133
REMARK   49  A    between atoms: _133  and  _134
REMARK   50  A    between atoms: _133  and  _136
REMARK   51  A    between atoms: _139  and  _141
REMARK   52  A    between atoms: _141  and  _142
REMARK   53  A    between atoms: _141  and  _144
REMARK   54  A    between atoms: _144  and  _145
REMARK   55  A    between atoms: _150  and  _151
REMARK   56  A    between atoms: _153  and  _155
REMARK   57  A    between atoms: _155  and  _156
REMARK   58  A    between atoms: _158  and  _160
REMARK   59  A    between atoms: _160  and  _161
REMARK   60  A    between atoms: _160  and  _163
REMARK   61  A    between atoms: _163  and  _164
REMARK   62  A    between atoms: _167  and  _169
REMARK   63  A    between atoms: _169  and  _170
REMARK   64  A    between atoms: _169  and  _172
REMARK   65  A    between atoms: _172  and  _173
REMARK   66  A    between atoms: _176  and  _178
REMARK   67  A    between atoms: _178  and  _179
REMARK   68  A    between atoms: _178  and  _181
REMARK   69  A    between atoms: _181  and  _182
REMARK   70  A    between atoms: _187  and  _189
REMARK   71  A    between atoms: _189  and  _190
REMARK   72  A    between atoms: _189  and  _192
REMARK   73  A    between atoms: _192  and  _193
REMARK   74  A    between atoms: _193  and  _194
REMARK   75  A    between atoms: _199  and  _201
REMARK   76  A    between atoms: _201  and  _202
REMARK   77  A    between atoms: _201  and  _204
REMARK   78  A    between atoms: _204  and  _205
REMARK   79  A    between atoms: _208  and  _210
REMARK   80  A    between atoms: _210  and  _211
REMARK   81  A    between atoms: _210  and  _213
REMARK   82  A    between atoms: _213  and  _214
REMARK   83  A    between atoms: _217  and  _219
REMARK   84  A    between atoms: _219  and  _220
REMARK   85  A    between atoms: _219  and  _222
REMARK   86  A    between atoms: _222  and  _223
REMARK   87  A    between atoms: _228  and  _230
REMARK   88  A    between atoms: _230  and  _231
REMARK   89  A    between atoms: _234  and  _236
REMARK   90  A    between atoms: _236  and  _237
REMARK   91  A    between atoms: _239  and  _241
REMARK   92  A    between atoms: _241  and  _242
REMARK   93  A    between atoms: _244  and  _246
REMARK   94  A    between atoms: _246  and  _247
REMARK   95  A    between atoms: _246  and  _249
REMARK   96  A    between atoms: _249  and  _250
REMARK   97  A    between atoms: _253  and  _255
REMARK   98  A    between atoms: _255  and  _256
REMARK   99  A    between atoms: _255  and  _258
REMARK  100  A    between atoms: _258  and  _259
REMARK  101  A    between atoms: _262  and  _264
REMARK  102  A    between atoms: _264  and  _265
REMARK  103  A    between atoms: _264  and  _267
REMARK  104  A    between atoms: _267  and  _268
REMARK  105  A    between atoms: _273  and  _275
REMARK  106  A    between atoms: _275  and  _276
REMARK  107  A    between atoms: _275  and  _278
REMARK  108  A    between atoms: _278  and  _279
REMARK  109  A    between atoms: _282  and  _284
REMARK  110  A    between atoms: _284  and  _285
REMARK  111  A    between atoms: _284  and  _287
REMARK  112  A    between atoms: _287  and  _288
REMARK  113  A    between atoms: _288  and  _289
REMARK  114  A    between atoms: _292  and  _294
REMARK  115  A    between atoms: _294  and  _295
REMARK  116  A    between atoms: _294  and  _297
REMARK  117  A    between atoms: _300  and  _302
REMARK  118  A    between atoms: _302  and  _303
REMARK  119  A    between atoms: _302  and  _305
REMARK  120  A    between atoms: _305  and  _306
REMARK  121  A    between atoms: _311  and  _313
REMARK  122  A    between atoms: _313  and  _314
REMARK  123  A    between atoms: _313  and  _316
REMARK  124  A    between atoms: _316  and  _317
REMARK  125  A    between atoms: _320  and  _322
REMARK  126  A    between atoms: _322  and  _323
REMARK  127  A    between atoms: _322  and  _325
REMARK  128  A    between atoms: _325  and  _326
REMARK  129  A    between atoms: _328  and  _330
REMARK  130  A    between atoms: _330  and  _331
REMARK  131  A    between atoms: _330  and  _333
REMARK  132  A    between atoms: _333  and  _334
REMARK  133  A    between atoms: _339  and  _341
REMARK  134  A    between atoms: _341  and  _342
REMARK  135  A    between atoms: _341  and  _344
REMARK  136  A    between atoms: _347  and  _349
REMARK  137  A    between atoms: _349  and  _350
REMARK  138  A    between atoms: _349  and  _352
REMARK  139  A    between atoms: _352  and  _353
REMARK  140  A    between atoms: _358  and  _360
REMARK  141  A    between atoms: _360  and  _361
REMARK  142  A    between atoms: _360  and  _363
REMARK  143  A    between atoms: _363  and  _364
REMARK  144  A    between atoms: _364  and  _365
REMARK  145  A    between atoms: _365  and  _366
REMARK  146  A    between atoms: _375  and  _377
REMARK  147  A    between atoms: _377  and  _378
REMARK  148  A    between atoms: _377  and  _380
REMARK  149  A    between atoms: _380  and  _381
REMARK  150  A    between atoms: _381  and  _382
REMARK  151  A    between atoms: _385  and  _387
REMARK  152  A    between atoms: _387  and  _388
REMARK  153  A    between atoms: _387  and  _390
REMARK  154  A    between atoms: _390  and  _391
REMARK  155  A    between atoms: _397  and  _399
REMARK  156  A    between atoms: _399  and  _400
REMARK  157  A    between atoms: _399  and  _402
REMARK  158  A    between atoms: _402  and  _403
REMARK  159  A    between atoms: _403  and  _404
REMARK  160  A    between atoms: _404  and  _405
REMARK  161  A    between atoms: _414  and  _416
REMARK  162  A    between atoms: _416  and  _417
REMARK  163  A    between atoms: _416  and  _419
REMARK  164  A    between atoms: _419  and  _420
REMARK  165  A    between atoms: _420  and  _421
REMARK  166  A    between atoms: _421  and  _422
REMARK  167  A    between atoms: _431  and  _433
REMARK  168  A    between atoms: _433  and  _434
REMARK  169  A    between atoms: _433  and  _436
REMARK  170  A    between atoms: _436  and  _437
REMARK  171  A    between atoms: _442  and  _444
REMARK  172  A    between atoms: _444  and  _445
REMARK  173  A    between atoms: _444  and  _447
REMARK  174  A    between atoms: _447  and  _448
REMARK  175  A    between atoms: _450  and  _452
REMARK  176  A    between atoms: _452  and  _453
REMARK  177  A    between atoms: _452  and  _455
REMARK  178  A    between atoms: _455  and  _456
REMARK  179  A    between atoms: _459  and  _461
REMARK  180  A    between atoms: _461  and  _462
REMARK  181  A    between atoms: _461  and  _464
REMARK  182  A    between atoms: _464  and  _465
REMARK  183  A    between atoms: _468  and  _470
REMARK  184  A    between atoms: _470  and  _471
REMARK  185  A    between atoms: _470  and  _473
REMARK  186  A    between atoms: _476  and  _478
REMARK  187  A    between atoms: _478  and  _479
REMARK  188  A    between atoms: _481  and  _483
REMARK  189  A    between atoms: _483  and  _484
REMARK  190  A    between atoms: _483  and  _486
REMARK  191  A    between atoms: _486  and  _487
REMARK  192  A    between atoms: _490  and  _492
REMARK  193  A    between atoms: _492  and  _493
REMARK  194  A    between atoms: _495  and  _497
REMARK  195  A    between atoms: _497  and  _498
REMARK  196  A    between atoms: _497  and  _500
REMARK  197  A    between atoms: _500  and  _501
REMARK  198  A    between atoms: _504  and  _506
REMARK  199  A    between atoms: _506  and  _507
REMARK  200  A    between atoms: _506  and  _509
REMARK  201  A    between atoms: _509  and  _510
REMARK  202  A    between atoms: _515  and  _516
REMARK  203  A    between atoms: _518  and  _520
REMARK  204  A    between atoms: _520  and  _521
REMARK  205  A    between atoms: _520  and  _523
REMARK  206  A    between atoms: _523  and  _524
REMARK  207  A    between atoms: _527  and  _529
REMARK  208  A    between atoms: _529  and  _530
REMARK  209  A    between atoms: _529  and  _532
REMARK  210  A    between atoms: _532  and  _533
REMARK  211  A    between atoms: _538  and  _540
REMARK  212  A    between atoms: _540  and  _541
REMARK  213  A    between atoms: _544  and  _546
REMARK  214  A    between atoms: _546  and  _547
REMARK  215  A    between atoms: _546  and  _549
REMARK  216  A    between atoms: _552  and  _554
REMARK  217  A    between atoms: _554  and  _555
REMARK  218  A    between atoms: _558  and  _560
REMARK  219  A    between atoms: _560  and  _561
REMARK  220  A    between atoms: _560  and  _563
REMARK  221  A    between atoms: _563  and  _564
REMARK  222  A    between atoms: _567  and  _569
REMARK  223  A    between atoms: _569  and  _570
REMARK  224  A    between atoms: _569  and  _572
REMARK  225  A    between atoms: _572  and  _573
REMARK  226  A    between atoms: _573  and  _574
REMARK  227  A    between atoms: _574  and  _575
REMARK  228  A    between atoms: _584  and  _586
REMARK  229  A    between atoms: _586  and  _587
REMARK  230  A    between atoms: _586  and  _589
REMARK  231  A    between atoms: _589  and  _590
REMARK  232  A    between atoms: _593  and  _595
REMARK  233  A    between atoms: _595  and  _596
REMARK  234  A    between atoms: _599  and  _601
REMARK  235  A    between atoms: _601  and  _602
REMARK  236  A    between atoms: _605  and  _607
REMARK  237  A    between atoms: _607  and  _608
REMARK  238  A    between atoms: _607  and  _610
REMARK  239  A    between atoms: _610  and  _611
REMARK  240  A    between atoms: _611  and  _612
REMARK                            x       y       z     vdW  Elec       q    Type
REMARK                         _______ _______ _______ _____ _____    ______ ____
ROOT
ATOM      1  O   HOH     1     -29.684 -64.300 -46.975  0.00  0.00    +0.000 OA
ENDROOT
TORSDOF 0
REMARK  Name = ../refined-set-2016/3n76/3n76_pocket.pdb
REMARK  240 active torsions:
REMARK  status: ('A' for Active; 'I' for Inactive)
REMARK    1  A    between atoms: _1  and  _3
REMARK    2  A    between atoms: _3  and  _4
REMARK    3  A    between atoms: _3  and  _6
REMARK    4  A    between atoms: _6  and  _7
REMARK    5  A    between atoms: _12  and  _14
REMARK    6  A    between atoms: _14  and  _15
REMARK    7  A    between atoms: _18  and  _19
REMARK    8  A    between atoms: _24  and  _26
REMARK    9  A    between atoms: _26  and  _27
REMARK   10  A    between atoms: _26  and  _29
REMARK   11  A    between atoms: _29  and  _30
REMARK   12  A    between atoms: _35  and  _37
REMARK   13  A    between atoms: _37  and  _38
REMARK   14  A    between atoms: _37  and  _40
REMARK   15  A    between atoms: _40  and  _41
REMARK   16  A    between atoms: _44  and  _46
REMARK   17  A    between atoms: _46  and  _47
REMARK   18  A    between atoms: _49  and  _51
REMARK   19  A    between atoms: _51  and  _52
REMARK   20  A    between atoms: _51  and  _54
REMARK   21  A    between atoms: _54  and  _55
REMARK   22  A    between atoms: _55  and  _56
REMARK   23  A    between atoms: _56  and  _57
REMARK   24  A    between atoms: _66  and  _68
REMARK   25  A    between atoms: _68  and  _69
REMARK   26  A    between atoms: _68  and  _71
REMARK   27  A    between atoms: _71  and  _72
REMARK   28  A    between atoms: _75  and  _77
REMARK   29  A    between atoms: _77  and  _78
REMARK   30  A    between atoms: _80  and  _82
REMARK   31  A    between atoms: _82  and  _83
REMARK   32  A    between atoms: _82  and  _85
REMARK   33  A    between atoms: _85  and  _86
REMARK   34  A    between atoms: _86  and  _87
REMARK   35  A    between atoms: _87  and  _88
REMARK   36  A    between atoms: _97  and  _99
REMARK   37  A    between atoms: _99  and  _100
REMARK   38  A    between atoms: _99  and  _102
REMARK   39  A    between atoms: _102  and  _103
REMARK   40  A    between atoms: _103  and  _104
REMARK   41  A    between atoms: _104  and  _105
REMARK   42  A    between atoms: _114  and  _116
REMARK   43  A    between atoms: _116  and  _117
REMARK   44  A    between atoms: _116  and  _119
REMARK   45  A    between atoms: _119  and  _120
REMARK   46  A    between atoms: _120  and  _121
REMARK   47  A    between atoms: _125  and  _126
REMARK   48  A    between atoms: _131  and  _133
REMARK   49  A    between atoms: _133  and  _134
REMARK   50  A    between atoms: _133  and  _136
REMARK   51  A    between atoms: _139  and  _141
REMARK   52  A    between atoms: _141  and  _142
REMARK   53  A    between atoms: _141  and  _144
REMARK   54  A    between atoms: _144  and  _145
REMARK   55  A    between atoms: _150  and  _151
REMARK   56  A    between atoms: _153  and  _155
REMARK   57  A    between atoms: _155  and  _156
REMARK   58  A    between atoms: _158  and  _160
REMARK   59  A    between atoms: _160  and  _161
REMARK   60  A    between atoms: _160  and  _163
REMARK   61  A    between atoms: _163  and  _164
REMARK   62  A    between atoms: _167  and  _169
REMARK   63  A    between atoms: _169  and  _170
REMARK   64  A    between atoms: _169  and  _172
REMARK   65  A    between atoms: _172  and  _173
REMARK   66  A    between atoms: _176  and  _178
REMARK   67  A    between atoms: _178  and  _179
REMARK   68  A    between atoms: _178  and  _181
REMARK   69  A    between atoms: _181  and  _182
REMARK   70  A    between atoms: _187  and  _189
REMARK   71  A    between atoms: _189  and  _190
REMARK   72  A    between atoms: _189  and  _192
REMARK   73  A    between atoms: _192  and  _193
REMARK   74  A    between atoms: _193  and  _194
REMARK   75  A    between atoms: _199  and  _201
REMARK   76  A    between atoms: _201  and  _202
REMARK   77  A    between atoms: _201  and  _204
REMARK   78  A    between atoms: _204  and  _205
REMARK   79  A    between atoms: _208  and  _210
REMARK   80  A    between atoms: _210  and  _211
REMARK   81  A    between atoms: _210  and  _213
REMARK   82  A    between atoms: _213  and  _214
REMARK   83  A    between atoms: _217  and  _219
REMARK   84  A    between atoms: _219  and  _220
REMARK   85  A    between atoms: _219  and  _222
REMARK   86  A    between atoms: _222  and  _223
REMARK   87  A    between atoms: _228  and  _230
REMARK   88  A    between atoms: _230  and  _231
REMARK   89  A    between atoms: _234  and  _236
REMARK   90  A    between atoms: _236  and  _237
REMARK   91  A    between atoms: _239  and  _241
REMARK   92  A    between atoms: _241  and  _242
REMARK   93  A    between atoms: _244  and  _246
REMARK   94  A    between atoms: _246  and  _247
REMARK   95  A    between atoms: _246  and  _249
REMARK   96  A    between atoms: _249  and  _250
REMARK   97  A    between atoms: _253  and  _255
REMARK   98  A    between atoms: _255  and  _256
REMARK   99  A    between atoms: _255  and  _258
REMARK  100  A    between atoms: _258  and  _259
REMARK  101  A    between atoms: _262  and  _264
REMARK  102  A    between atoms: _264  and  _265
REMARK  103  A    between atoms: _264  and  _267
REMARK  104  A    between atoms: _267  and  _268
REMARK  105  A    between atoms: _273  and  _275
REMARK  106  A    between atoms: _275  and  _276
REMARK  107  A    between atoms: _275  and  _278
REMARK  108  A    between atoms: _278  and  _279
REMARK  109  A    between atoms: _282  and  _284
REMARK  110  A    between atoms: _284  and  _285
REMARK  111  A    between atoms: _284  and  _287
REMARK  112  A    between atoms: _287  and  _288
REMARK  113  A    between atoms: _288  and  _289
REMARK  114  A    between atoms: _292  and  _294
REMARK  115  A    between atoms: _294  and  _295
REMARK  116  A    between atoms: _294  and  _297
REMARK  117  A    between atoms: _300  and  _302
REMARK  118  A    between atoms: _302  and  _303
REMARK  119  A    between atoms: _302  and  _305
REMARK  120  A    between atoms: _305  and  _306
REMARK  121  A    between atoms: _311  and  _313
REMARK  122  A    between atoms: _313  and  _314
REMARK  123  A    between atoms: _313  and  _316
REMARK  124  A    between atoms: _316  and  _317
REMARK  125  A    between atoms: _320  and  _322
REMARK  126  A    between atoms: _322  and  _323
REMARK  127  A    between atoms: _322  and  _325
REMARK  128  A    between atoms: _325  and  _326
REMARK  129  A    between atoms: _328  and  _330
REMARK  130  A    between atoms: _330  and  _331
REMARK  131  A    between atoms: _330  and  _333
REMARK  132  A    between atoms: _333  and  _334
REMARK  133  A    between atoms: _339  and  _341
REMARK  134  A    between atoms: _341  and  _342
REMARK  135  A    between atoms: _341  and  _344
REMARK  136  A    between atoms: _347  and  _349
REMARK  137  A    between atoms: _349  and  _350
REMARK  138  A    between atoms: _349  and  _352
REMARK  139  A    between atoms: _352  and  _353
REMARK  140  A    between atoms: _358  and  _360
REMARK  141  A    between atoms: _360  and  _361
REMARK  142  A    between atoms: _360  and  _363
REMARK  143  A    between atoms: _363  and  _364
REMARK  144  A    between atoms: _364  and  _365
REMARK  145  A    between atoms: _365  and  _366
REMARK  146  A    between atoms: _375  and  _377
REMARK  147  A    between atoms: _377  and  _378
REMARK  148  A    between atoms: _377  and  _380
REMARK  149  A    between atoms: _380  and  _381
REMARK  150  A    between atoms: _381  and  _382
REMARK  151  A    between atoms: _385  and  _387
REMARK  152  A    between atoms: _387  and  _388
REMARK  153  A    between atoms: _387  and  _390
REMARK  154  A    between atoms: _390  and  _391
REMARK  155  A    between atoms: _397  and  _399
REMARK  156  A    between atoms: _399  and  _400
REMARK  157  A    between atoms: _399  and  _402
REMARK  158  A    between atoms: _402  and  _403
REMARK  159  A    between atoms: _403  and  _404
REMARK  160  A    between atoms: _404  and  _405
REMARK  161  A    between atoms: _414  and  _416
REMARK  162  A    between atoms: _416  and  _417
REMARK  163  A    between atoms: _416  and  _419
REMARK  164  A    between atoms: _419  and  _420
REMARK  165  A    between atoms: _420  and  _421
REMARK  166  A    between atoms: _421  and  _422
REMARK  167  A    between atoms: _431  and  _433
REMARK  168  A    between atoms: _433  and  _434
REMARK  169  A    between atoms: _433  and  _436
REMARK  170  A    between atoms: _436  and  _437
REMARK  171  A    between atoms: _442  and  _444
REMARK  172  A    between atoms: _444  and  _445
REMARK  173  A    between atoms: _444  and  _447
REMARK  174  A    between atoms: _447  and  _448
REMARK  175  A    between atoms: _450  and  _452
REMARK  176  A    between atoms: _452  and  _453
REMARK  177  A    between atoms: _452  and  _455
REMARK  178  A    between atoms: _455  and  _456
REMARK  179  A    between atoms: _459  and  _461
REMARK  180  A    between atoms: _461  and  _462
REMARK  181  A    between atoms: _461  and  _464
REMARK  182  A    between atoms: _464  and  _465
REMARK  183  A    between atoms: _468  and  _470
REMARK  184  A    between atoms: _470  and  _471
REMARK  185  A    between atoms: _470  and  _473
REMARK  186  A    between atoms: _476  and  _478
REMARK  187  A    between atoms: _478  and  _479
REMARK  188  A    between atoms: _481  and  _483
REMARK  189  A    between atoms: _483  and  _484
REMARK  190  A    between atoms: _483  and  _486
REMARK  191  A    between atoms: _486  and  _487
REMARK  192  A    between atoms: _490  and  _492
REMARK  193  A    between atoms: _492  and  _493
REMARK  194  A    between atoms: _495  and  _497
REMARK  195  A    between atoms: _497  and  _498
REMARK  196  A    between atoms: _497  and  _500
REMARK  197  A    between atoms: _500  and  _501
REMARK  198  A    between atoms: _504  and  _506
REMARK  199  A    between atoms: _506  and  _507
REMARK  200  A    between atoms: _506  and  _509
REMARK  201  A    between atoms: _509  and  _510
REMARK  202  A    between atoms: _515  and  _516
REMARK  203  A    between atoms: _518  and  _520
REMARK  204  A    between atoms: _520  and  _521
REMARK  205  A    between atoms: _520  and  _523
REMARK  206  A    between atoms: _523  and  _524
REMARK  207  A    between atoms: _527  and  _529
REMARK  208  A    between atoms: _529  and  _530
REMARK  209  A    between atoms: _529  and  _532
REMARK  210  A    between atoms: _532  and  _533
REMARK  211  A    between atoms: _538  and  _540
REMARK  212  A    between atoms: _540  and  _541
REMARK  213  A    between atoms: _544  and  _546
REMARK  214  A    between atoms: _546  and  _547
REMARK  215  A    between atoms: _546  and  _549
REMARK  216  A    between atoms: _552  and  _554
REMARK  217  A    between atoms: _554  and  _555
REMARK  218  A    between atoms: _558  and  _560
REMARK  219  A    between atoms: _560  and  _561
REMARK  220  A    between atoms: _560  and  _563
REMARK  221  A    between atoms: _563  and  _564
REMARK  222  A    between atoms: _567  and  _569
REMARK  223  A    between atoms: _569  and  _570
REMARK  224  A    between atoms: _569  and  _572
REMARK  225  A    between atoms: _572  and  _573
REMARK  226  A    between atoms: _573  and  _574
REMARK  227  A    between atoms: _574  and  _575
REMARK  228  A    between atoms: _584  and  _586
REMARK  229  A    between atoms: _586  and  _587
REMARK  230  A    between atoms: _586  and  _589
REMARK  231  A    between atoms: _589  and  _590
REMARK  232  A    between atoms: _593  and  _595
REMARK  233  A    between atoms: _595  and  _596
REMARK  234  A    between atoms: _599  and  _601
REMARK  235  A    between atoms: _601  and  _602
REMARK  236  A    between atoms: _605  and  _607
REMARK  237  A    between atoms: _607  and  _608
REMARK  238  A    between atoms: _607  and  _610
REMARK  239  A    between atoms: _610  and  _611
REMARK  240  A    between atoms: _611  and  _612
REMARK                            x       y       z     vdW  Elec       q    Type
REMARK                         _______ _______ _______ _____ _____    ______ ____
ROOT
ATOM      1  O   HOH     1     -46.904 -54.012 -48.928  0.00  0.00    +0.000 OA
ENDROOT
TORSDOF 0
REMARK  Name = ../refined-set-2016/3n76/3n76_pocket.pdb
REMARK  240 active torsions:
REMARK  status: ('A' for Active; 'I' for Inactive)
REMARK    1  A    between atoms: _1  and  _3
REMARK    2  A    between atoms: _3  and  _4
REMARK    3  A    between atoms: _3  and  _6
REMARK    4  A    between atoms: _6  and  _7
REMARK    5  A    between atoms: _12  and  _14
REMARK    6  A    between atoms: _14  and  _15
REMARK    7  A    between atoms: _18  and  _19
REMARK    8  A    between atoms: _24  and  _26
REMARK    9  A    between atoms: _26  and  _27
REMARK   10  A    between atoms: _26  and  _29
REMARK   11  A    between atoms: _29  and  _30
REMARK   12  A    between atoms: _35  and  _37
REMARK   13  A    between atoms: _37  and  _38
REMARK   14  A    between atoms: _37  and  _40
REMARK   15  A    between atoms: _40  and  _41
REMARK   16  A    between atoms: _44  and  _46
REMARK   17  A    between atoms: _46  and  _47
REMARK   18  A    between atoms: _49  and  _51
REMARK   19  A    between atoms: _51  and  _52
REMARK   20  A    between atoms: _51  and  _54
REMARK   21  A    between atoms: _54  and  _55
REMARK   22  A    between atoms: _55  and  _56
REMARK   23  A    between atoms: _56  and  _57
REMARK   24  A    between atoms: _66  and  _68
REMARK   25  A    between atoms: _68  and  _69
REMARK   26  A    between atoms: _68  and  _71
REMARK   27  A    between atoms: _71  and  _72
REMARK   28  A    between atoms: _75  and  _77
REMARK   29  A    between atoms: _77  and  _78
REMARK   30  A    between atoms: _80  and  _82
REMARK   31  A    between atoms: _82  and  _83
REMARK   32  A    between atoms: _82  and  _85
REMARK   33  A    between atoms: _85  and  _86
REMARK   34  A    between atoms: _86  and  _87
REMARK   35  A    between atoms: _87  and  _88
REMARK   36  A    between atoms: _97  and  _99
REMARK   37  A    between atoms: _99  and  _100
REMARK   38  A    between atoms: _99  and  _102
REMARK   39  A    between atoms: _102  and  _103
REMARK   40  A    between atoms: _103  and  _104
REMARK   41  A    between atoms: _104  and  _105
REMARK   42  A    between atoms: _114  and  _116
REMARK   43  A    between atoms: _116  and  _117
REMARK   44  A    between atoms: _116  and  _119
REMARK   45  A    between atoms: _119  and  _120
REMARK   46  A    between atoms: _120  and  _121
REMARK   47  A    between atoms: _125  and  _126
REMARK   48  A    between atoms: _131  and  _133
REMARK   49  A    between atoms: _133  and  _134
REMARK   50  A    between atoms: _133  and  _136
REMARK   51  A    between atoms: _139  and  _141
REMARK   52  A    between atoms: _141  and  _142
REMARK   53  A    between atoms: _141  and  _144
REMARK   54  A    between atoms: _144  and  _145
REMARK   55  A    between atoms: _150  and  _151
REMARK   56  A    between atoms: _153  and  _155
REMARK   57  A    between atoms: _155  and  _156
REMARK   58  A    between atoms: _158  and  _160
REMARK   59  A    between atoms: _160  and  _161
REMARK   60  A    between atoms: _160  and  _163
REMARK   61  A    between atoms: _163  and  _164
REMARK   62  A    between atoms: _167  and  _169
REMARK   63  A    between atoms: _169  and  _170
REMARK   64  A    between atoms: _169  and  _172
REMARK   65  A    between atoms: _172  and  _173
REMARK   66  A    between atoms: _176  and  _178
REMARK   67  A    between atoms: _178  and  _179
REMARK   68  A    between atoms: _178  and  _181
REMARK   69  A    between atoms: _181  and  _182
REMARK   70  A    between atoms: _187  and  _189
REMARK   71  A    between atoms: _189  and  _190
REMARK   72  A    between atoms: _189  and  _192
REMARK   73  A    between atoms: _192  and  _193
REMARK   74  A    between atoms: _193  and  _194
REMARK   75  A    between atoms: _199  and  _201
REMARK   76  A    between atoms: _201  and  _202
REMARK   77  A    between atoms: _201  and  _204
REMARK   78  A    between atoms: _204  and  _205
REMARK   79  A    between atoms: _208  and  _210
REMARK   80  A    between atoms: _210  and  _211
REMARK   81  A    between atoms: _210  and  _213
REMARK   82  A    between atoms: _213  and  _214
REMARK   83  A    between atoms: _217  and  _219
REMARK   84  A    between atoms: _219  and  _220
REMARK   85  A    between atoms: _219  and  _222
REMARK   86  A    between atoms: _222  and  _223
REMARK   87  A    between atoms: _228  and  _230
REMARK   88  A    between atoms: _230  and  _231
REMARK   89  A    between atoms: _234  and  _236
REMARK   90  A    between atoms: _236  and  _237
REMARK   91  A    between atoms: _239  and  _241
REMARK   92  A    between atoms: _241  and  _242
REMARK   93  A    between atoms: _244  and  _246
REMARK   94  A    between atoms: _246  and  _247
REMARK   95  A    between atoms: _246  and  _249
REMARK   96  A    between atoms: _249  and  _250
REMARK   97  A    between atoms: _253  and  _255
REMARK   98  A    between atoms: _255  and  _256
REMARK   99  A    between atoms: _255  and  _258
REMARK  100  A    between atoms: _258  and  _259
REMARK  101  A    between atoms: _262  and  _264
REMARK  102  A    between atoms: _264  and  _265
REMARK  103  A    between atoms: _264  and  _267
REMARK  104  A    between atoms: _267  and  _268
REMARK  105  A    between atoms: _273  and  _275
REMARK  106  A    between atoms: _275  and  _276
REMARK  107  A    between atoms: _275  and  _278
REMARK  108  A    between atoms: _278  and  _279
REMARK  109  A    between atoms: _282  and  _284
REMARK  110  A    between atoms: _284  and  _285
REMARK  111  A    between atoms: _284  and  _287
REMARK  112  A    between atoms: _287  and  _288
REMARK  113  A    between atoms: _288  and  _289
REMARK  114  A    between atoms: _292  and  _294
REMARK  115  A    between atoms: _294  and  _295
REMARK  116  A    between atoms: _294  and  _297
REMARK  117  A    between atoms: _300  and  _302
REMARK  118  A    between atoms: _302  and  _303
REMARK  119  A    between atoms: _302  and  _305
REMARK  120  A    between atoms: _305  and  _306
REMARK  121  A    between atoms: _311  and  _313
REMARK  122  A    between atoms: _313  and  _314
REMARK  123  A    between atoms: _313  and  _316
REMARK  124  A    between atoms: _316  and  _317
REMARK  125  A    between atoms: _320  and  _322
REMARK  126  A    between atoms: _322  and  _323
REMARK  127  A    between atoms: _322  and  _325
REMARK  128  A    between atoms: _325  and  _326
REMARK  129  A    between atoms: _328  and  _330
REMARK  130  A    between atoms: _330  and  _331
REMARK  131  A    between atoms: _330  and  _333
REMARK  132  A    between atoms: _333  and  _334
REMARK  133  A    between atoms: _339  and  _341
REMARK  134  A    between atoms: _341  and  _342
REMARK  135  A    between atoms: _341  and  _344
REMARK  136  A    between atoms: _347  and  _349
REMARK  137  A    between atoms: _349  and  _350
REMARK  138  A    between atoms: _349  and  _352
REMARK  139  A    between atoms: _352  and  _353
REMARK  140  A    between atoms: _358  and  _360
REMARK  141  A    between atoms: _360  and  _361
REMARK  142  A    between atoms: _360  and  _363
REMARK  143  A    between atoms: _363  and  _364
REMARK  144  A    between atoms: _364  and  _365
REMARK  145  A    between atoms: _365  and  _366
REMARK  146  A    between atoms: _375  and  _377
REMARK  147  A    between atoms: _377  and  _378
REMARK  148  A    between atoms: _377  and  _380
REMARK  149  A    between atoms: _380  and  _381
REMARK  150  A    between atoms: _381  and  _382
REMARK  151  A    between atoms: _385  and  _387
REMARK  152  A    between atoms: _387  and  _388
REMARK  153  A    between atoms: _387  and  _390
REMARK  154  A    between atoms: _390  and  _391
REMARK  155  A    between atoms: _397  and  _399
REMARK  156  A    between atoms: _399  and  _400
REMARK  157  A    between atoms: _399  and  _402
REMARK  158  A    between atoms: _402  and  _403
REMARK  159  A    between atoms: _403  and  _404
REMARK  160  A    between atoms: _404  and  _405
REMARK  161  A    between atoms: _414  and  _416
REMARK  162  A    between atoms: _416  and  _417
REMARK  163  A    between atoms: _416  and  _419
REMARK  164  A    between atoms: _419  and  _420
REMARK  165  A    between atoms: _420  and  _421
REMARK  166  A    between atoms: _421  and  _422
REMARK  167  A    between atoms: _431  and  _433
REMARK  168  A    between atoms: _433  and  _434
REMARK  169  A    between atoms: _433  and  _436
REMARK  170  A    between atoms: _436  and  _437
REMARK  171  A    between atoms: _442  and  _444
REMARK  172  A    between atoms: _444  and  _445
REMARK  173  A    between atoms: _444  and  _447
REMARK  174  A    between atoms: _447  and  _448
REMARK  175  A    between atoms: _450  and  _452
REMARK  176  A    between atoms: _452  and  _453
REMARK  177  A    between atoms: _452  and  _455
REMARK  178  A    between atoms: _455  and  _456
REMARK  179  A    between atoms: _459  and  _461
REMARK  180  A    between atoms: _461  and  _462
REMARK  181  A    between atoms: _461  and  _464
REMARK  182  A    between atoms: _464  and  _465
REMARK  183  A    between atoms: _468  and  _470
REMARK  184  A    between atoms: _470  and  _471
REMARK  185  A    between atoms: _470  and  _473
REMARK  186  A    between atoms: _476  and  _478
REMARK  187  A    between atoms: _478  and  _479
REMARK  188  A    between atoms: _481  and  _483
REMARK  189  A    between atoms: _483  and  _484
REMARK  190  A    between atoms: _483  and  _486
REMARK  191  A    between atoms: _486  and  _487
REMARK  192  A    between atoms: _490  and  _492
REMARK  193  A    between atoms: _492  and  _493
REMARK  194  A    between atoms: _495  and  _497
REMARK  195  A    between atoms: _497  and  _498
REMARK  196  A    between atoms: _497  and  _500
REMARK  197  A    between atoms: _500  and  _501
REMARK  198  A    between atoms: _504  and  _506
REMARK  199  A    between atoms: _506  and  _507
REMARK  200  A    between atoms: _506  and  _509
REMARK  201  A    between atoms: _509  and  _510
REMARK  202  A    between atoms: _515  and  _516
REMARK  203  A    between atoms: _518  and  _520
REMARK  204  A    between atoms: _520  and  _521
REMARK  205  A    between atoms: _520  and  _523
REMARK  206  A    between atoms: _523  and  _524
REMARK  207  A    between atoms: _527  and  _529
REMARK  208  A    between atoms: _529  and  _530
REMARK  209  A    between atoms: _529  and  _532
REMARK  210  A    between atoms: _532  and  _533
REMARK  211  A    between atoms: _538  and  _540
REMARK  212  A    between atoms: _540  and  _541
REMARK  213  A    between atoms: _544  and  _546
REMARK  214  A    between atoms: _546  and  _547
REMARK  215  A    between atoms: _546  and  _549
REMARK  216  A    between atoms: _552  and  _554
REMARK  217  A    between atoms: _554  and  _555
REMARK  218  A    between atoms: _558  and  _560
REMARK  219  A    between atoms: _560  and  _561
REMARK  220  A    between atoms: _560  and  _563
REMARK  221  A    between atoms: _563  and  _564
REMARK  222  A    between atoms: _567  and  _569
REMARK  223  A    between atoms: _569  and  _570
REMARK  224  A    between atoms: _569  and  _572
REMARK  225  A    between atoms: _572  and  _573
REMARK  226  A    between atoms: _573  and  _574
REMARK  227  A    between atoms: _574  and  _575
REMARK  228  A    between atoms: _584  and  _586
REMARK  229  A    between atoms: _586  and  _587
REMARK  230  A    between atoms: _586  and  _589
REMARK  231  A    between atoms: _589  and  _590
REMARK  232  A    between atoms: _593  and  _595
REMARK  233  A    between atoms: _595  and  _596
REMARK  234  A    between atoms: _599  and  _601
REMARK  235  A    between atoms: _601  and  _602
REMARK  236  A    between atoms: _605  and  _607
REMARK  237  A    between atoms: _607  and  _608
REMARK  238  A    between atoms: _607  and  _610
REMARK  239  A    between atoms: _610  and  _611
REMARK  240  A    between atoms: _611  and  _612
REMARK                            x       y       z     vdW  Elec       q    Type
REMARK                         _______ _______ _______ _____ _____    ______ ____
ROOT
ATOM      1  O   HOH     1     -41.971 -63.512 -43.235  0.00  0.00    +0.000 OA
ENDROOT
TORSDOF 0
REMARK  Name = ../refined-set-2016/3n76/3n76_pocket.pdb
REMARK  240 active torsions:
REMARK  status: ('A' for Active; 'I' for Inactive)
REMARK    1  A    between atoms: _1  and  _3
REMARK    2  A    between atoms: _3  and  _4
REMARK    3  A    between atoms: _3  and  _6
REMARK    4  A    between atoms: _6  and  _7
REMARK    5  A    between atoms: _12  and  _14
REMARK    6  A    between atoms: _14  and  _15
REMARK    7  A    between atoms: _18  and  _19
REMARK    8  A    between atoms: _24  and  _26
REMARK    9  A    between atoms: _26  and  _27
REMARK   10  A    between atoms: _26  and  _29
REMARK   11  A    between atoms: _29  and  _30
REMARK   12  A    between atoms: _35  and  _37
REMARK   13  A    between atoms: _37  and  _38
REMARK   14  A    between atoms: _37  and  _40
REMARK   15  A    between atoms: _40  and  _41
REMARK   16  A    between atoms: _44  and  _46
REMARK   17  A    between atoms: _46  and  _47
REMARK   18  A    between atoms: _49  and  _51
REMARK   19  A    between atoms: _51  and  _52
REMARK   20  A    between atoms: _51  and  _54
REMARK   21  A    between atoms: _54  and  _55
REMARK   22  A    between atoms: _55  and  _56
REMARK   23  A    between atoms: _56  and  _57
REMARK   24  A    between atoms: _66  and  _68
REMARK   25  A    between atoms: _68  and  _69
REMARK   26  A    between atoms: _68  and  _71
REMARK   27  A    between atoms: _71  and  _72
REMARK   28  A    between atoms: _75  and  _77
REMARK   29  A    between atoms: _77  and  _78
REMARK   30  A    between atoms: _80  and  _82
REMARK   31  A    between atoms: _82  and  _83
REMARK   32  A    between atoms: _82  and  _85
REMARK   33  A    between atoms: _85  and  _86
REMARK   34  A    between atoms: _86  and  _87
REMARK   35  A    between atoms: _87  and  _88
REMARK   36  A    between atoms: _97  and  _99
REMARK   37  A    between atoms: _99  and  _100
REMARK   38  A    between atoms: _99  and  _102
REMARK   39  A    between atoms: _102  and  _103
REMARK   40  A    between atoms: _103  and  _104
REMARK   41  A    between atoms: _104  and  _105
REMARK   42  A    between atoms: _114  and  _116
REMARK   43  A    between atoms: _116  and  _117
REMARK   44  A    between atoms: _116  and  _119
REMARK   45  A    between atoms: _119  and  _120
REMARK   46  A    between atoms: _120  and  _121
REMARK   47  A    between atoms: _125  and  _126
REMARK   48  A    between atoms: _131  and  _133
REMARK   49  A    between atoms: _133  and  _134
REMARK   50  A    between atoms: _133  and  _136
REMARK   51  A    between atoms: _139  and  _141
REMARK   52  A    between atoms: _141  and  _142
REMARK   53  A    between atoms: _141  and  _144
REMARK   54  A    between atoms: _144  and  _145
REMARK   55  A    between atoms: _150  and  _151
REMARK   56  A    between atoms: _153  and  _155
REMARK   57  A    between atoms: _155  and  _156
REMARK   58  A    between atoms: _158  and  _160
REMARK   59  A    between atoms: _160  and  _161
REMARK   60  A    between atoms: _160  and  _163
REMARK   61  A    between atoms: _163  and  _164
REMARK   62  A    between atoms: _167  and  _169
REMARK   63  A    between atoms: _169  and  _170
REMARK   64  A    between atoms: _169  and  _172
REMARK   65  A    between atoms: _172  and  _173
REMARK   66  A    between atoms: _176  and  _178
REMARK   67  A    between atoms: _178  and  _179
REMARK   68  A    between atoms: _178  and  _181
REMARK   69  A    between atoms: _181  and  _182
REMARK   70  A    between atoms: _187  and  _189
REMARK   71  A    between atoms: _189  and  _190
REMARK   72  A    between atoms: _189  and  _192
REMARK   73  A    between atoms: _192  and  _193
REMARK   74  A    between atoms: _193  and  _194
REMARK   75  A    between atoms: _199  and  _201
REMARK   76  A    between atoms: _201  and  _202
REMARK   77  A    between atoms: _201  and  _204
REMARK   78  A    between atoms: _204  and  _205
REMARK   79  A    between atoms: _208  and  _210
REMARK   80  A    between atoms: _210  and  _211
REMARK   81  A    between atoms: _210  and  _213
REMARK   82  A    between atoms: _213  and  _214
REMARK   83  A    between atoms: _217  and  _219
REMARK   84  A    between atoms: _219  and  _220
REMARK   85  A    between atoms: _219  and  _222
REMARK   86  A    between atoms: _222  and  _223
REMARK   87  A    between atoms: _228  and  _230
REMARK   88  A    between atoms: _230  and  _231
REMARK   89  A    between atoms: _234  and  _236
REMARK   90  A    between atoms: _236  and  _237
REMARK   91  A    between atoms: _239  and  _241
REMARK   92  A    between atoms: _241  and  _242
REMARK   93  A    between atoms: _244  and  _246
REMARK   94  A    between atoms: _246  and  _247
REMARK   95  A    between atoms: _246  and  _249
REMARK   96  A    between atoms: _249  and  _250
REMARK   97  A    between atoms: _253  and  _255
REMARK   98  A    between atoms: _255  and  _256
REMARK   99  A    between atoms: _255  and  _258
REMARK  100  A    between atoms: _258  and  _259
REMARK  101  A    between atoms: _262  and  _264
REMARK  102  A    between atoms: _264  and  _265
REMARK  103  A    between atoms: _264  and  _267
REMARK  104  A    between atoms: _267  and  _268
REMARK  105  A    between atoms: _273  and  _275
REMARK  106  A    between atoms: _275  and  _276
REMARK  107  A    between atoms: _275  and  _278
REMARK  108  A    between atoms: _278  and  _279
REMARK  109  A    between atoms: _282  and  _284
REMARK  110  A    between atoms: _284  and  _285
REMARK  111  A    between atoms: _284  and  _287
REMARK  112  A    between atoms: _287  and  _288
REMARK  113  A    between atoms: _288  and  _289
REMARK  114  A    between atoms: _292  and  _294
REMARK  115  A    between atoms: _294  and  _295
REMARK  116  A    between atoms: _294  and  _297
REMARK  117  A    between atoms: _300  and  _302
REMARK  118  A    between atoms: _302  and  _303
REMARK  119  A    between atoms: _302  and  _305
REMARK  120  A    between atoms: _305  and  _306
REMARK  121  A    between atoms: _311  and  _313
REMARK  122  A    between atoms: _313  and  _314
REMARK  123  A    between atoms: _313  and  _316
REMARK  124  A    between atoms: _316  and  _317
REMARK  125  A    between atoms: _320  and  _322
REMARK  126  A    between atoms: _322  and  _323
REMARK  127  A    between atoms: _322  and  _325
REMARK  128  A    between atoms: _325  and  _326
REMARK  129  A    between atoms: _328  and  _330
REMARK  130  A    between atoms: _330  and  _331
REMARK  131  A    between atoms: _330  and  _333
REMARK  132  A    between atoms: _333  and  _334
REMARK  133  A    between atoms: _339  and  _341
REMARK  134  A    between atoms: _341  and  _342
REMARK  135  A    between atoms: _341  and  _344
REMARK  136  A    between atoms: _347  and  _349
REMARK  137  A    between atoms: _349  and  _350
REMARK  138  A    between atoms: _349  and  _352
REMARK  139  A    between atoms: _352  and  _353
REMARK  140  A    between atoms: _358  and  _360
REMARK  141  A    between atoms: _360  and  _361
REMARK  142  A    between atoms: _360  and  _363
REMARK  143  A    between atoms: _363  and  _364
REMARK  144  A    between atoms: _364  and  _365
REMARK  145  A    between atoms: _365  and  _366
REMARK  146  A    between atoms: _375  and  _377
REMARK  147  A    between atoms: _377  and  _378
REMARK  148  A    between atoms: _377  and  _380
REMARK  149  A    between atoms: _380  and  _381
REMARK  150  A    between atoms: _381  and  _382
REMARK  151  A    between atoms: _385  and  _387
REMARK  152  A    between atoms: _387  and  _388
REMARK  153  A    between atoms: _387  and  _390
REMARK  154  A    between atoms: _390  and  _391
REMARK  155  A    between atoms: _397  and  _399
REMARK  156  A    between atoms: _399  and  _400
REMARK  157  A    between atoms: _399  and  _402
REMARK  158  A    between atoms: _402  and  _403
REMARK  159  A    between atoms: _403  and  _404
REMARK  160  A    between atoms: _404  and  _405
REMARK  161  A    between atoms: _414  and  _416
REMARK  162  A    between atoms: _416  and  _417
REMARK  163  A    between atoms: _416  and  _419
REMARK  164  A    between atoms: _419  and  _420
REMARK  165  A    between atoms: _420  and  _421
REMARK  166  A    between atoms: _421  and  _422
REMARK  167  A    between atoms: _431  and  _433
REMARK  168  A    between atoms: _433  and  _434
REMARK  169  A    between atoms: _433  and  _436
REMARK  170  A    between atoms: _436  and  _437
REMARK  171  A    between atoms: _442  and  _444
REMARK  172  A    between atoms: _444  and  _445
REMARK  173  A    between atoms: _444  and  _447
REMARK  174  A    between atoms: _447  and  _448
REMARK  175  A    between atoms: _450  and  _452
REMARK  176  A    between atoms: _452  and  _453
REMARK  177  A    between atoms: _452  and  _455
REMARK  178  A    between atoms: _455  and  _456
REMARK  179  A    between atoms: _459  and  _461
REMARK  180  A    between atoms: _461  and  _462
REMARK  181  A    between atoms: _461  and  _464
REMARK  182  A    between atoms: _464  and  _465
REMARK  183  A    between atoms: _468  and  _470
REMARK  184  A    between atoms: _470  and  _471
REMARK  185  A    between atoms: _470  and  _473
REMARK  186  A    between atoms: _476  and  _478
REMARK  187  A    between atoms: _478  and  _479
REMARK  188  A    between atoms: _481  and  _483
REMARK  189  A    between atoms: _483  and  _484
REMARK  190  A    between atoms: _483  and  _486
REMARK  191  A    between atoms: _486  and  _487
REMARK  192  A    between atoms: _490  and  _492
REMARK  193  A    between atoms: _492  and  _493
REMARK  194  A    between atoms: _495  and  _497
REMARK  195  A    between atoms: _497  and  _498
REMARK  196  A    between atoms: _497  and  _500
REMARK  197  A    between atoms: _500  and  _501
REMARK  198  A    between atoms: _504  and  _506
REMARK  199  A    between atoms: _506  and  _507
REMARK  200  A    between atoms: _506  and  _509
REMARK  201  A    between atoms: _509  and  _510
REMARK  202  A    between atoms: _515  and  _516
REMARK  203  A    between atoms: _518  and  _520
REMARK  204  A    between atoms: _520  and  _521
REMARK  205  A    between atoms: _520  and  _523
REMARK  206  A    between atoms: _523  and  _524
REMARK  207  A    between atoms: _527  and  _529
REMARK  208  A    between atoms: _529  and  _530
REMARK  209  A    between atoms: _529  and  _532
REMARK  210  A    between atoms: _532  and  _533
REMARK  211  A    between atoms: _538  and  _540
REMARK  212  A    between atoms: _540  and  _541
REMARK  213  A    between atoms: _544  and  _546
REMARK  214  A    between atoms: _546  and  _547
REMARK  215  A    between atoms: _546  and  _549
REMARK  216  A    between atoms: _552  and  _554
REMARK  217  A    between atoms: _554  and  _555
REMARK  218  A    between atoms: _558  and  _560
REMARK  219  A    between atoms: _560  and  _561
REMARK  220  A    between atoms: _560  and  _563
REMARK  221  A    between atoms: _563  and  _564
REMARK  222  A    between atoms: _567  and  _569
REMARK  223  A    between atoms: _569  and  _570
REMARK  224  A    between atoms: _569  and  _572
REMARK  225  A    between atoms: _572  and  _573
REMARK  226  A    between atoms: _573  and  _574
REMARK  227  A    between atoms: _574  and  _575
REMARK  228  A    between atoms: _584  and  _586
REMARK  229  A    between atoms: _586  and  _587
REMARK  230  A    between atoms: _586  and  _589
REMARK  231  A    between atoms: _589  and  _590
REMARK  232  A    between atoms: _593  and  _595
REMARK  233  A    between atoms: _595  and  _596
REMARK  234  A    between atoms: _599  and  _601
REMARK  235  A    between atoms: _601  and  _602
REMARK  236  A    between atoms: _605  and  _607
REMARK  237  A    between atoms: _607  and  _608
REMARK  238  A    between atoms: _607  and  _610
REMARK  239  A    between atoms: _610  and  _611
REMARK  240  A    between atoms: _611  and  _612
REMARK                            x       y       z     vdW  Elec       q    Type
REMARK                         _______ _______ _______ _____ _____    ______ ____
ROOT
ATOM      1  O   HOH     1     -40.920 -59.295 -38.042  0.00  0.00    +0.000 OA
ENDROOT
TORSDOF 0
REMARK  Name = ../refined-set-2016/3n76/3n76_pocket.pdb
REMARK  240 active torsions:
REMARK  status: ('A' for Active; 'I' for Inactive)
REMARK    1  A    between atoms: _1  and  _3
REMARK    2  A    between atoms: _3  and  _4
REMARK    3  A    between atoms: _3  and  _6
REMARK    4  A    between atoms: _6  and  _7
REMARK    5  A    between atoms: _12  and  _14
REMARK    6  A    between atoms: _14  and  _15
REMARK    7  A    between atoms: _18  and  _19
REMARK    8  A    between atoms: _24  and  _26
REMARK    9  A    between atoms: _26  and  _27
REMARK   10  A    between atoms: _26  and  _29
REMARK   11  A    between atoms: _29  and  _30
REMARK   12  A    between atoms: _35  and  _37
REMARK   13  A    between atoms: _37  and  _38
REMARK   14  A    between atoms: _37  and  _40
REMARK   15  A    between atoms: _40  and  _41
REMARK   16  A    between atoms: _44  and  _46
REMARK   17  A    between atoms: _46  and  _47
REMARK   18  A    between atoms: _49  and  _51
REMARK   19  A    between atoms: _51  and  _52
REMARK   20  A    between atoms: _51  and  _54
REMARK   21  A    between atoms: _54  and  _55
REMARK   22  A    between atoms: _55  and  _56
REMARK   23  A    between atoms: _56  and  _57
REMARK   24  A    between atoms: _66  and  _68
REMARK   25  A    between atoms: _68  and  _69
REMARK   26  A    between atoms: _68  and  _71
REMARK   27  A    between atoms: _71  and  _72
REMARK   28  A    between atoms: _75  and  _77
REMARK   29  A    between atoms: _77  and  _78
REMARK   30  A    between atoms: _80  and  _82
REMARK   31  A    between atoms: _82  and  _83
REMARK   32  A    between atoms: _82  and  _85
REMARK   33  A    between atoms: _85  and  _86
REMARK   34  A    between atoms: _86  and  _87
REMARK   35  A    between atoms: _87  and  _88
REMARK   36  A    between atoms: _97  and  _99
REMARK   37  A    between atoms: _99  and  _100
REMARK   38  A    between atoms: _99  and  _102
REMARK   39  A    between atoms: _102  and  _103
REMARK   40  A    between atoms: _103  and  _104
REMARK   41  A    between atoms: _104  and  _105
REMARK   42  A    between atoms: _114  and  _116
REMARK   43  A    between atoms: _116  and  _117
REMARK   44  A    between atoms: _116  and  _119
REMARK   45  A    between atoms: _119  and  _120
REMARK   46  A    between atoms: _120  and  _121
REMARK   47  A    between atoms: _125  and  _126
REMARK   48  A    between atoms: _131  and  _133
REMARK   49  A    between atoms: _133  and  _134
REMARK   50  A    between atoms: _133  and  _136
REMARK   51  A    between atoms: _139  and  _141
REMARK   52  A    between atoms: _141  and  _142
REMARK   53  A    between atoms: _141  and  _144
REMARK   54  A    between atoms: _144  and  _145
REMARK   55  A    between atoms: _150  and  _151
REMARK   56  A    between atoms: _153  and  _155
REMARK   57  A    between atoms: _155  and  _156
REMARK   58  A    between atoms: _158  and  _160
REMARK   59  A    between atoms: _160  and  _161
REMARK   60  A    between atoms: _160  and  _163
REMARK   61  A    between atoms: _163  and  _164
REMARK   62  A    between atoms: _167  and  _169
REMARK   63  A    between atoms: _169  and  _170
REMARK   64  A    between atoms: _169  and  _172
REMARK   65  A    between atoms: _172  and  _173
REMARK   66  A    between atoms: _176  and  _178
REMARK   67  A    between atoms: _178  and  _179
REMARK   68  A    between atoms: _178  and  _181
REMARK   69  A    between atoms: _181  and  _182
REMARK   70  A    between atoms: _187  and  _189
REMARK   71  A    between atoms: _189  and  _190
REMARK   72  A    between atoms: _189  and  _192
REMARK   73  A    between atoms: _192  and  _193
REMARK   74  A    between atoms: _193  and  _194
REMARK   75  A    between atoms: _199  and  _201
REMARK   76  A    between atoms: _201  and  _202
REMARK   77  A    between atoms: _201  and  _204
REMARK   78  A    between atoms: _204  and  _205
REMARK   79  A    between atoms: _208  and  _210
REMARK   80  A    between atoms: _210  and  _211
REMARK   81  A    between atoms: _210  and  _213
REMARK   82  A    between atoms: _213  and  _214
REMARK   83  A    between atoms: _217  and  _219
REMARK   84  A    between atoms: _219  and  _220
REMARK   85  A    between atoms: _219  and  _222
REMARK   86  A    between atoms: _222  and  _223
REMARK   87  A    between atoms: _228  and  _230
REMARK   88  A    between atoms: _230  and  _231
REMARK   89  A    between atoms: _234  and  _236
REMARK   90  A    between atoms: _236  and  _237
REMARK   91  A    between atoms: _239  and  _241
REMARK   92  A    between atoms: _241  and  _242
REMARK   93  A    between atoms: _244  and  _246
REMARK   94  A    between atoms: _246  and  _247
REMARK   95  A    between atoms: _246  and  _249
REMARK   96  A    between atoms: _249  and  _250
REMARK   97  A    between atoms: _253  and  _255
REMARK   98  A    between atoms: _255  and  _256
REMARK   99  A    between atoms: _255  and  _258
REMARK  100  A    between atoms: _258  and  _259
REMARK  101  A    between atoms: _262  and  _264
REMARK  102  A    between atoms: _264  and  _265
REMARK  103  A    between atoms: _264  and  _267
REMARK  104  A    between atoms: _267  and  _268
REMARK  105  A    between atoms: _273  and  _275
REMARK  106  A    between atoms: _275  and  _276
REMARK  107  A    between atoms: _275  and  _278
REMARK  108  A    between atoms: _278  and  _279
REMARK  109  A    between atoms: _282  and  _284
REMARK  110  A    between atoms: _284  and  _285
REMARK  111  A    between atoms: _284  and  _287
REMARK  112  A    between atoms: _287  and  _288
REMARK  113  A    between atoms: _288  and  _289
REMARK  114  A    between atoms: _292  and  _294
REMARK  115  A    between atoms: _294  and  _295
REMARK  116  A    between atoms: _294  and  _297
REMARK  117  A    between atoms: _300  and  _302
REMARK  118  A    between atoms: _302  and  _303
REMARK  119  A    between atoms: _302  and  _305
REMARK  120  A    between atoms: _305  and  _306
REMARK  121  A    between atoms: _311  and  _313
REMARK  122  A    between atoms: _313  and  _314
REMARK  123  A    between atoms: _313  and  _316
REMARK  124  A    between atoms: _316  and  _317
REMARK  125  A    between atoms: _320  and  _322
REMARK  126  A    between atoms: _322  and  _323
REMARK  127  A    between atoms: _322  and  _325
REMARK  128  A    between atoms: _325  and  _326
REMARK  129  A    between atoms: _328  and  _330
REMARK  130  A    between atoms: _330  and  _331
REMARK  131  A    between atoms: _330  and  _333
REMARK  132  A    between atoms: _333  and  _334
REMARK  133  A    between atoms: _339  and  _341
REMARK  134  A    between atoms: _341  and  _342
REMARK  135  A    between atoms: _341  and  _344
REMARK  136  A    between atoms: _347  and  _349
REMARK  137  A    between atoms: _349  and  _350
REMARK  138  A    between atoms: _349  and  _352
REMARK  139  A    between atoms: _352  and  _353
REMARK  140  A    between atoms: _358  and  _360
REMARK  141  A    between atoms: _360  and  _361
REMARK  142  A    between atoms: _360  and  _363
REMARK  143  A    between atoms: _363  and  _364
REMARK  144  A    between atoms: _364  and  _365
REMARK  145  A    between atoms: _365  and  _366
REMARK  146  A    between atoms: _375  and  _377
REMARK  147  A    between atoms: _377  and  _378
REMARK  148  A    between atoms: _377  and  _380
REMARK  149  A    between atoms: _380  and  _381
REMARK  150  A    between atoms: _381  and  _382
REMARK  151  A    between atoms: _385  and  _387
REMARK  152  A    between atoms: _387  and  _388
REMARK  153  A    between atoms: _387  and  _390
REMARK  154  A    between atoms: _390  and  _391
REMARK  155  A    between atoms: _397  and  _399
REMARK  156  A    between atoms: _399  and  _400
REMARK  157  A    between atoms: _399  and  _402
REMARK  158  A    between atoms: _402  and  _403
REMARK  159  A    between atoms: _403  and  _404
REMARK  160  A    between atoms: _404  and  _405
REMARK  161  A    between atoms: _414  and  _416
REMARK  162  A    between atoms: _416  and  _417
REMARK  163  A    between atoms: _416  and  _419
REMARK  164  A    between atoms: _419  and  _420
REMARK  165  A    between atoms: _420  and  _421
REMARK  166  A    between atoms: _421  and  _422
REMARK  167  A    between atoms: _431  and  _433
REMARK  168  A    between atoms: _433  and  _434
REMARK  169  A    between atoms: _433  and  _436
REMARK  170  A    between atoms: _436  and  _437
REMARK  171  A    between atoms: _442  and  _444
REMARK  172  A    between atoms: _444  and  _445
REMARK  173  A    between atoms: _444  and  _447
REMARK  174  A    between atoms: _447  and  _448
REMARK  175  A    between atoms: _450  and  _452
REMARK  176  A    between atoms: _452  and  _453
REMARK  177  A    between atoms: _452  and  _455
REMARK  178  A    between atoms: _455  and  _456
REMARK  179  A    between atoms: _459  and  _461
REMARK  180  A    between atoms: _461  and  _462
REMARK  181  A    between atoms: _461  and  _464
REMARK  182  A    between atoms: _464  and  _465
REMARK  183  A    between atoms: _468  and  _470
REMARK  184  A    between atoms: _470  and  _471
REMARK  185  A    between atoms: _470  and  _473
REMARK  186  A    between atoms: _476  and  _478
REMARK  187  A    between atoms: _478  and  _479
REMARK  188  A    between atoms: _481  and  _483
REMARK  189  A    between atoms: _483  and  _484
REMARK  190  A    between atoms: _483  and  _486
REMARK  191  A    between atoms: _486  and  _487
REMARK  192  A    between atoms: _490  and  _492
REMARK  193  A    between atoms: _492  and  _493
REMARK  194  A    between atoms: _495  and  _497
REMARK  195  A    between atoms: _497  and  _498
REMARK  196  A    between atoms: _497  and  _500
REMARK  197  A    between atoms: _500  and  _501
REMARK  198  A    between atoms: _504  and  _506
REMARK  199  A    between atoms: _506  and  _507
REMARK  200  A    between atoms: _506  and  _509
REMARK  201  A    between atoms: _509  and  _510
REMARK  202  A    between atoms: _515  and  _516
REMARK  203  A    between atoms: _518  and  _520
REMARK  204  A    between atoms: _520  and  _521
REMARK  205  A    between atoms: _520  and  _523
REMARK  206  A    between atoms: _523  and  _524
REMARK  207  A    between atoms: _527  and  _529
REMARK  208  A    between atoms: _529  and  _530
REMARK  209  A    between atoms: _529  and  _532
REMARK  210  A    between atoms: _532  and  _533
REMARK  211  A    between atoms: _538  and  _540
REMARK  212  A    between atoms: _540  and  _541
REMARK  213  A    between atoms: _544  and  _546
REMARK  214  A    between atoms: _546  and  _547
REMARK  215  A    between atoms: _546  and  _549
REMARK  216  A    between atoms: _552  and  _554
REMARK  217  A    between atoms: _554  and  _555
REMARK  218  A    between atoms: _558  and  _560
REMARK  219  A    between atoms: _560  and  _561
REMARK  220  A    between atoms: _560  and  _563
REMARK  221  A    between atoms: _563  and  _564
REMARK  222  A    between atoms: _567  and  _569
REMARK  223  A    between atoms: _569  and  _570
REMARK  224  A    between atoms: _569  and  _572
REMARK  225  A    between atoms: _572  and  _573
REMARK  226  A    between atoms: _573  and  _574
REMARK  227  A    between atoms: _574  and  _575
REMARK  228  A    between atoms: _584  and  _586
REMARK  229  A    between atoms: _586  and  _587
REMARK  230  A    between atoms: _586  and  _589
REMARK  231  A    between atoms: _589  and  _590
REMARK  232  A    between atoms: _593  and  _595
REMARK  233  A    between atoms: _595  and  _596
REMARK  234  A    between atoms: _599  and  _601
REMARK  235  A    between atoms: _601  and  _602
REMARK  236  A    between atoms: _605  and  _607
REMARK  237  A    between atoms: _607  and  _608
REMARK  238  A    between atoms: _607  and  _610
REMARK  239  A    between atoms: _610  and  _611
REMARK  240  A    between atoms: _611  and  _612
REMARK                            x       y       z     vdW  Elec       q    Type
REMARK                         _______ _______ _______ _____ _____    ______ ____
ROOT
ATOM      1  O   HOH     1     -38.976 -64.801 -35.279  0.00  0.00    +0.000 OA
ENDROOT
TORSDOF 0
