REMARK  Name = ../refined-set-2016/1j01/1j01_pocket.pdb
REMARK  130 active torsions:
REMARK  status: ('A' for Active; 'I' for Inactive)
REMARK    1  A    between atoms: _1  and  _3
REMARK    2  A    between atoms: _3  and  _4
REMARK    3  A    between atoms: _7  and  _9
REMARK    4  A    between atoms: _9  and  _10
REMARK    5  A    between atoms: _9  and  _12
REMARK    6  A    between atoms: _12  and  _13
REMARK    7  A    between atoms: _16  and  _18
REMARK    8  A    between atoms: _18  and  _19
REMARK    9  A    between atoms: _22  and  _24
REMARK   10  A    between atoms: _24  and  _25
REMARK   11  A    between atoms: _24  and  _27
REMARK   12  A    between atoms: _27  and  _28
REMARK   13  A    between atoms: _28  and  _29
REMARK   14  A    between atoms: _32  and  _34
REMARK   15  A    between atoms: _34  and  _35
REMARK   16  A    between atoms: _34  and  _37
REMARK   17  A    between atoms: _37  and  _38
REMARK   18  A    between atoms: _43  and  _45
REMARK   19  A    between atoms: _45  and  _46
REMARK   20  A    between atoms: _45  and  _48
REMARK   21  A    between atoms: _48  and  _49
REMARK   22  A    between atoms: _49  and  _50
REMARK   23  A    between atoms: _50  and  _51
REMARK   24  A    between atoms: _51  and  _52
REMARK   25  A    between atoms: _56  and  _58
REMARK   26  A    between atoms: _58  and  _59
REMARK   27  A    between atoms: _58  and  _61
REMARK   28  A    between atoms: _61  and  _62
REMARK   29  A    between atoms: _65  and  _67
REMARK   30  A    between atoms: _67  and  _68
REMARK   31  A    between atoms: _67  and  _70
REMARK   32  A    between atoms: _70  and  _71
REMARK   33  A    between atoms: _76  and  _78
REMARK   34  A    between atoms: _78  and  _79
REMARK   35  A    between atoms: _78  and  _81
REMARK   36  A    between atoms: _81  and  _82
REMARK   37  A    between atoms: _85  and  _87
REMARK   38  A    between atoms: _87  and  _88
REMARK   39  A    between atoms: _87  and  _90
REMARK   40  A    between atoms: _90  and  _91
REMARK   41  A    between atoms: _101  and  _103
REMARK   42  A    between atoms: _103  and  _104
REMARK   43  A    between atoms: _103  and  _106
REMARK   44  A    between atoms: _106  and  _107
REMARK   45  A    between atoms: _109  and  _111
REMARK   46  A    between atoms: _111  and  _112
REMARK   47  A    between atoms: _111  and  _114
REMARK   48  A    between atoms: _114  and  _115
REMARK   49  A    between atoms: _115  and  _116
REMARK   50  A    between atoms: _121  and  _123
REMARK   51  A    between atoms: _123  and  _124
REMARK   52  A    between atoms: _123  and  _126
REMARK   53  A    between atoms: _126  and  _127
REMARK   54  A    between atoms: _130  and  _132
REMARK   55  A    between atoms: _132  and  _133
REMARK   56  A    between atoms: _132  and  _135
REMARK   57  A    between atoms: _135  and  _136
REMARK   58  A    between atoms: _141  and  _143
REMARK   59  A    between atoms: _143  and  _144
REMARK   60  A    between atoms: _143  and  _146
REMARK   61  A    between atoms: _146  and  _147
REMARK   62  A    between atoms: _147  and  _148
REMARK   63  A    between atoms: _151  and  _153
REMARK   64  A    between atoms: _153  and  _154
REMARK   65  A    between atoms: _153  and  _156
REMARK   66  A    between atoms: _156  and  _157
REMARK   67  A    between atoms: _162  and  _164
REMARK   68  A    between atoms: _164  and  _165
REMARK   69  A    between atoms: _164  and  _167
REMARK   70  A    between atoms: _167  and  _168
REMARK   71  A    between atoms: _171  and  _173
REMARK   72  A    between atoms: _173  and  _174
REMARK   73  A    between atoms: _173  and  _176
REMARK   74  A    between atoms: _176  and  _177
REMARK   75  A    between atoms: _182  and  _183
REMARK   76  A    between atoms: _185  and  _187
REMARK   77  A    between atoms: _187  and  _188
REMARK   78  A    between atoms: _187  and  _190
REMARK   79  A    between atoms: _190  and  _191
REMARK   80  A    between atoms: _191  and  _192
REMARK   81  A    between atoms: _197  and  _199
REMARK   82  A    between atoms: _199  and  _200
REMARK   83  A    between atoms: _199  and  _202
REMARK   84  A    between atoms: _202  and  _203
REMARK   85  A    between atoms: _208  and  _210
REMARK   86  A    between atoms: _210  and  _211
REMARK   87  A    between atoms: _210  and  _213
REMARK   88  A    between atoms: _213  and  _214
REMARK   89  A    between atoms: _217  and  _219
REMARK   90  A    between atoms: _219  and  _220
REMARK   91  A    between atoms: _219  and  _222
REMARK   92  A    between atoms: _222  and  _223
REMARK   93  A    between atoms: _223  and  _224
REMARK   94  A    between atoms: _227  and  _229
REMARK   95  A    between atoms: _229  and  _230
REMARK   96  A    between atoms: _229  and  _232
REMARK   97  A    between atoms: _232  and  _233
REMARK   98  A    between atoms: _236  and  _238
REMARK   99  A    between atoms: _238  and  _239
REMARK  100  A    between atoms: _238  and  _241
REMARK  101  A    between atoms: _241  and  _242
REMARK  102  A    between atoms: _252  and  _254
REMARK  103  A    between atoms: _254  and  _255
REMARK  104  A    between atoms: _257  and  _259
REMARK  105  A    between atoms: _259  and  _260
REMARK  106  A    between atoms: _259  and  _262
REMARK  107  A    between atoms: _262  and  _263
REMARK  108  A    between atoms: _268  and  _269
REMARK  109  A    between atoms: _271  and  _273
REMARK  110  A    between atoms: _273  and  _274
REMARK  111  A    between atoms: _273  and  _276
REMARK  112  A    between atoms: _276  and  _277
REMARK  113  A    between atoms: _279  and  _281
REMARK  114  A    between atoms: _281  and  _282
REMARK  115  A    between atoms: _281  and  _284
REMARK  116  A    between atoms: _284  and  _285
REMARK  117  A    between atoms: _295  and  _297
REMARK  118  A    between atoms: _297  and  _298
REMARK  119  A    between atoms: _297  and  _300
REMARK  120  A    between atoms: _303  and  _305
REMARK  121  A    between atoms: _305  and  _306
REMARK  122  A    between atoms: _305  and  _308
REMARK  123  A    between atoms: _308  and  _309
REMARK  124  A    between atoms: _312  and  _314
REMARK  125  A    between atoms: _314  and  _315
REMARK  126  A    between atoms: _314  and  _317
REMARK  127  A    between atoms: _320  and  _322
REMARK  128  A    between atoms: _322  and  _323
REMARK  129  A    between atoms: _322  and  _325
REMARK  130  A    between atoms: _325  and  _326
REMARK                            x       y       z     vdW  Elec       q    Type
REMARK                         _______ _______ _______ _____ _____    ______ ____
ROOT
ATOM      1  CA  ALA A   1      23.838  62.111  44.438  0.00  0.00    +0.133 C 
ATOM      2  CB  ALA A   1      23.022  62.336  43.168  0.00  0.00    +0.027 C 
ENDROOT
BRANCH   1   3
ATOM      3  N   ALA A   1      25.004  61.284  44.150  0.00  0.00    -0.239 NA
ATOM      4  H   ALA A   1      24.962  60.616  43.354  0.00  0.00    +0.142 HD
ENDBRANCH   1   3
BRANCH   1   5
ATOM      5  C   ALA A   1      23.025  61.337  45.463  0.00  0.00    +0.224 C 
ATOM      6  O   ALA A   1      22.635  60.197  45.218  0.00  0.00    -0.287 OA
ENDBRANCH   1   5
TORSDOF 2
REMARK  Name = ../refined-set-2016/1j01/1j01_pocket.pdb
REMARK  130 active torsions:
REMARK  status: ('A' for Active; 'I' for Inactive)
REMARK    1  A    between atoms: _1  and  _3
REMARK    2  A    between atoms: _3  and  _4
REMARK    3  A    between atoms: _7  and  _9
REMARK    4  A    between atoms: _9  and  _10
REMARK    5  A    between atoms: _9  and  _12
REMARK    6  A    between atoms: _12  and  _13
REMARK    7  A    between atoms: _16  and  _18
REMARK    8  A    between atoms: _18  and  _19
REMARK    9  A    between atoms: _22  and  _24
REMARK   10  A    between atoms: _24  and  _25
REMARK   11  A    between atoms: _24  and  _27
REMARK   12  A    between atoms: _27  and  _28
REMARK   13  A    between atoms: _28  and  _29
REMARK   14  A    between atoms: _32  and  _34
REMARK   15  A    between atoms: _34  and  _35
REMARK   16  A    between atoms: _34  and  _37
REMARK   17  A    between atoms: _37  and  _38
REMARK   18  A    between atoms: _43  and  _45
REMARK   19  A    between atoms: _45  and  _46
REMARK   20  A    between atoms: _45  and  _48
REMARK   21  A    between atoms: _48  and  _49
REMARK   22  A    between atoms: _49  and  _50
REMARK   23  A    between atoms: _50  and  _51
REMARK   24  A    between atoms: _51  and  _52
REMARK   25  A    between atoms: _56  and  _58
REMARK   26  A    between atoms: _58  and  _59
REMARK   27  A    between atoms: _58  and  _61
REMARK   28  A    between atoms: _61  and  _62
REMARK   29  A    between atoms: _65  and  _67
REMARK   30  A    between atoms: _67  and  _68
REMARK   31  A    between atoms: _67  and  _70
REMARK   32  A    between atoms: _70  and  _71
REMARK   33  A    between atoms: _76  and  _78
REMARK   34  A    between atoms: _78  and  _79
REMARK   35  A    between atoms: _78  and  _81
REMARK   36  A    between atoms: _81  and  _82
REMARK   37  A    between atoms: _85  and  _87
REMARK   38  A    between atoms: _87  and  _88
REMARK   39  A    between atoms: _87  and  _90
REMARK   40  A    between atoms: _90  and  _91
REMARK   41  A    between atoms: _101  and  _103
REMARK   42  A    between atoms: _103  and  _104
REMARK   43  A    between atoms: _103  and  _106
REMARK   44  A    between atoms: _106  and  _107
REMARK   45  A    between atoms: _109  and  _111
REMARK   46  A    between atoms: _111  and  _112
REMARK   47  A    between atoms: _111  and  _114
REMARK   48  A    between atoms: _114  and  _115
REMARK   49  A    between atoms: _115  and  _116
REMARK   50  A    between atoms: _121  and  _123
REMARK   51  A    between atoms: _123  and  _124
REMARK   52  A    between atoms: _123  and  _126
REMARK   53  A    between atoms: _126  and  _127
REMARK   54  A    between atoms: _130  and  _132
REMARK   55  A    between atoms: _132  and  _133
REMARK   56  A    between atoms: _132  and  _135
REMARK   57  A    between atoms: _135  and  _136
REMARK   58  A    between atoms: _141  and  _143
REMARK   59  A    between atoms: _143  and  _144
REMARK   60  A    between atoms: _143  and  _146
REMARK   61  A    between atoms: _146  and  _147
REMARK   62  A    between atoms: _147  and  _148
REMARK   63  A    between atoms: _151  and  _153
REMARK   64  A    between atoms: _153  and  _154
REMARK   65  A    between atoms: _153  and  _156
REMARK   66  A    between atoms: _156  and  _157
REMARK   67  A    between atoms: _162  and  _164
REMARK   68  A    between atoms: _164  and  _165
REMARK   69  A    between atoms: _164  and  _167
REMARK   70  A    between atoms: _167  and  _168
REMARK   71  A    between atoms: _171  and  _173
REMARK   72  A    between atoms: _173  and  _174
REMARK   73  A    between atoms: _173  and  _176
REMARK   74  A    between atoms: _176  and  _177
REMARK   75  A    between atoms: _182  and  _183
REMARK   76  A    between atoms: _185  and  _187
REMARK   77  A    between atoms: _187  and  _188
REMARK   78  A    between atoms: _187  and  _190
REMARK   79  A    between atoms: _190  and  _191
REMARK   80  A    between atoms: _191  and  _192
REMARK   81  A    between atoms: _197  and  _199
REMARK   82  A    between atoms: _199  and  _200
REMARK   83  A    between atoms: _199  and  _202
REMARK   84  A    between atoms: _202  and  _203
REMARK   85  A    between atoms: _208  and  _210
REMARK   86  A    between atoms: _210  and  _211
REMARK   87  A    between atoms: _210  and  _213
REMARK   88  A    between atoms: _213  and  _214
REMARK   89  A    between atoms: _217  and  _219
REMARK   90  A    between atoms: _219  and  _220
REMARK   91  A    between atoms: _219  and  _222
REMARK   92  A    between atoms: _222  and  _223
REMARK   93  A    between atoms: _223  and  _224
REMARK   94  A    between atoms: _227  and  _229
REMARK   95  A    between atoms: _229  and  _230
REMARK   96  A    between atoms: _229  and  _232
REMARK   97  A    between atoms: _232  and  _233
REMARK   98  A    between atoms: _236  and  _238
REMARK   99  A    between atoms: _238  and  _239
REMARK  100  A    between atoms: _238  and  _241
REMARK  101  A    between atoms: _241  and  _242
REMARK  102  A    between atoms: _252  and  _254
REMARK  103  A    between atoms: _254  and  _255
REMARK  104  A    between atoms: _257  and  _259
REMARK  105  A    between atoms: _259  and  _260
REMARK  106  A    between atoms: _259  and  _262
REMARK  107  A    between atoms: _262  and  _263
REMARK  108  A    between atoms: _268  and  _269
REMARK  109  A    between atoms: _271  and  _273
REMARK  110  A    between atoms: _273  and  _274
REMARK  111  A    between atoms: _273  and  _276
REMARK  112  A    between atoms: _276  and  _277
REMARK  113  A    between atoms: _279  and  _281
REMARK  114  A    between atoms: _281  and  _282
REMARK  115  A    between atoms: _281  and  _284
REMARK  116  A    between atoms: _284  and  _285
REMARK  117  A    between atoms: _295  and  _297
REMARK  118  A    between atoms: _297  and  _298
REMARK  119  A    between atoms: _297  and  _300
REMARK  120  A    between atoms: _303  and  _305
REMARK  121  A    between atoms: _305  and  _306
REMARK  122  A    between atoms: _305  and  _308
REMARK  123  A    between atoms: _308  and  _309
REMARK  124  A    between atoms: _312  and  _314
REMARK  125  A    between atoms: _314  and  _315
REMARK  126  A    between atoms: _314  and  _317
REMARK  127  A    between atoms: _320  and  _322
REMARK  128  A    between atoms: _322  and  _323
REMARK  129  A    between atoms: _322  and  _325
REMARK  130  A    between atoms: _325  and  _326
REMARK                            x       y       z     vdW  Elec       q    Type
REMARK                         _______ _______ _______ _____ _____    ______ ____
ROOT
ATOM      1  CA  ASP A   1      18.374  60.798  48.475  0.00  0.00    +0.144 C 
ENDROOT
BRANCH   1   2
ATOM      2  N   ASP A   1      19.791  60.643  48.161  0.00  0.00    -0.239 NA
ATOM      3  H   ASP A   1      20.197  59.686  48.161  0.00  0.00    +0.142 HD
ENDBRANCH   1   2
BRANCH   1   4
ATOM      4  C   ASP A   1      18.407  60.372  49.938  0.00  0.00    +0.225 C 
ATOM      5  O   ASP A   1      18.544  59.183  50.240  0.00  0.00    -0.287 OA
ENDBRANCH   1   4
BRANCH   1   6
ATOM      6  CB  ASP A   1      17.487  59.831  47.696  0.00  0.00    +0.139 C 
BRANCH   6   7
ATOM      7  CG  ASP A   1      16.027  59.915  48.125  0.00  0.00    +0.367 C 
ATOM      8  OD2 ASP A   1      15.758  60.487  49.203  0.00  0.00    -0.246 OA
ATOM      9  OD1 ASP A   1      15.148  59.410  47.399  0.00  0.00    -0.246 OA
ENDBRANCH   6   7
ENDBRANCH   1   6
TORSDOF 4
REMARK  Name = ../refined-set-2016/1j01/1j01_pocket.pdb
REMARK  130 active torsions:
REMARK  status: ('A' for Active; 'I' for Inactive)
REMARK    1  A    between atoms: _1  and  _3
REMARK    2  A    between atoms: _3  and  _4
REMARK    3  A    between atoms: _7  and  _9
REMARK    4  A    between atoms: _9  and  _10
REMARK    5  A    between atoms: _9  and  _12
REMARK    6  A    between atoms: _12  and  _13
REMARK    7  A    between atoms: _16  and  _18
REMARK    8  A    between atoms: _18  and  _19
REMARK    9  A    between atoms: _22  and  _24
REMARK   10  A    between atoms: _24  and  _25
REMARK   11  A    between atoms: _24  and  _27
REMARK   12  A    between atoms: _27  and  _28
REMARK   13  A    between atoms: _28  and  _29
REMARK   14  A    between atoms: _32  and  _34
REMARK   15  A    between atoms: _34  and  _35
REMARK   16  A    between atoms: _34  and  _37
REMARK   17  A    between atoms: _37  and  _38
REMARK   18  A    between atoms: _43  and  _45
REMARK   19  A    between atoms: _45  and  _46
REMARK   20  A    between atoms: _45  and  _48
REMARK   21  A    between atoms: _48  and  _49
REMARK   22  A    between atoms: _49  and  _50
REMARK   23  A    between atoms: _50  and  _51
REMARK   24  A    between atoms: _51  and  _52
REMARK   25  A    between atoms: _56  and  _58
REMARK   26  A    between atoms: _58  and  _59
REMARK   27  A    between atoms: _58  and  _61
REMARK   28  A    between atoms: _61  and  _62
REMARK   29  A    between atoms: _65  and  _67
REMARK   30  A    between atoms: _67  and  _68
REMARK   31  A    between atoms: _67  and  _70
REMARK   32  A    between atoms: _70  and  _71
REMARK   33  A    between atoms: _76  and  _78
REMARK   34  A    between atoms: _78  and  _79
REMARK   35  A    between atoms: _78  and  _81
REMARK   36  A    between atoms: _81  and  _82
REMARK   37  A    between atoms: _85  and  _87
REMARK   38  A    between atoms: _87  and  _88
REMARK   39  A    between atoms: _87  and  _90
REMARK   40  A    between atoms: _90  and  _91
REMARK   41  A    between atoms: _101  and  _103
REMARK   42  A    between atoms: _103  and  _104
REMARK   43  A    between atoms: _103  and  _106
REMARK   44  A    between atoms: _106  and  _107
REMARK   45  A    between atoms: _109  and  _111
REMARK   46  A    between atoms: _111  and  _112
REMARK   47  A    between atoms: _111  and  _114
REMARK   48  A    between atoms: _114  and  _115
REMARK   49  A    between atoms: _115  and  _116
REMARK   50  A    between atoms: _121  and  _123
REMARK   51  A    between atoms: _123  and  _124
REMARK   52  A    between atoms: _123  and  _126
REMARK   53  A    between atoms: _126  and  _127
REMARK   54  A    between atoms: _130  and  _132
REMARK   55  A    between atoms: _132  and  _133
REMARK   56  A    between atoms: _132  and  _135
REMARK   57  A    between atoms: _135  and  _136
REMARK   58  A    between atoms: _141  and  _143
REMARK   59  A    between atoms: _143  and  _144
REMARK   60  A    between atoms: _143  and  _146
REMARK   61  A    between atoms: _146  and  _147
REMARK   62  A    between atoms: _147  and  _148
REMARK   63  A    between atoms: _151  and  _153
REMARK   64  A    between atoms: _153  and  _154
REMARK   65  A    between atoms: _153  and  _156
REMARK   66  A    between atoms: _156  and  _157
REMARK   67  A    between atoms: _162  and  _164
REMARK   68  A    between atoms: _164  and  _165
REMARK   69  A    between atoms: _164  and  _167
REMARK   70  A    between atoms: _167  and  _168
REMARK   71  A    between atoms: _171  and  _173
REMARK   72  A    between atoms: _173  and  _174
REMARK   73  A    between atoms: _173  and  _176
REMARK   74  A    between atoms: _176  and  _177
REMARK   75  A    between atoms: _182  and  _183
REMARK   76  A    between atoms: _185  and  _187
REMARK   77  A    between atoms: _187  and  _188
REMARK   78  A    between atoms: _187  and  _190
REMARK   79  A    between atoms: _190  and  _191
REMARK   80  A    between atoms: _191  and  _192
REMARK   81  A    between atoms: _197  and  _199
REMARK   82  A    between atoms: _199  and  _200
REMARK   83  A    between atoms: _199  and  _202
REMARK   84  A    between atoms: _202  and  _203
REMARK   85  A    between atoms: _208  and  _210
REMARK   86  A    between atoms: _210  and  _211
REMARK   87  A    between atoms: _210  and  _213
REMARK   88  A    between atoms: _213  and  _214
REMARK   89  A    between atoms: _217  and  _219
REMARK   90  A    between atoms: _219  and  _220
REMARK   91  A    between atoms: _219  and  _222
REMARK   92  A    between atoms: _222  and  _223
REMARK   93  A    between atoms: _223  and  _224
REMARK   94  A    between atoms: _227  and  _229
REMARK   95  A    between atoms: _229  and  _230
REMARK   96  A    between atoms: _229  and  _232
REMARK   97  A    between atoms: _232  and  _233
REMARK   98  A    between atoms: _236  and  _238
REMARK   99  A    between atoms: _238  and  _239
REMARK  100  A    between atoms: _238  and  _241
REMARK  101  A    between atoms: _241  and  _242
REMARK  102  A    between atoms: _252  and  _254
REMARK  103  A    between atoms: _254  and  _255
REMARK  104  A    between atoms: _257  and  _259
REMARK  105  A    between atoms: _259  and  _260
REMARK  106  A    between atoms: _259  and  _262
REMARK  107  A    between atoms: _262  and  _263
REMARK  108  A    between atoms: _268  and  _269
REMARK  109  A    between atoms: _271  and  _273
REMARK  110  A    between atoms: _273  and  _274
REMARK  111  A    between atoms: _273  and  _276
REMARK  112  A    between atoms: _276  and  _277
REMARK  113  A    between atoms: _279  and  _281
REMARK  114  A    between atoms: _281  and  _282
REMARK  115  A    between atoms: _281  and  _284
REMARK  116  A    between atoms: _284  and  _285
REMARK  117  A    between atoms: _295  and  _297
REMARK  118  A    between atoms: _297  and  _298
REMARK  119  A    between atoms: _297  and  _300
REMARK  120  A    between atoms: _303  and  _305
REMARK  121  A    between atoms: _305  and  _306
REMARK  122  A    between atoms: _305  and  _308
REMARK  123  A    between atoms: _308  and  _309
REMARK  124  A    between atoms: _312  and  _314
REMARK  125  A    between atoms: _314  and  _315
REMARK  126  A    between atoms: _314  and  _317
REMARK  127  A    between atoms: _320  and  _322
REMARK  128  A    between atoms: _322  and  _323
REMARK  129  A    between atoms: _322  and  _325
REMARK  130  A    between atoms: _325  and  _326
REMARK                            x       y       z     vdW  Elec       q    Type
REMARK                         _______ _______ _______ _____ _____    ______ ____
ROOT
ATOM      1  CA  GLU A   2      20.106  64.864  44.343  0.00  0.00    +0.149 C 
ENDROOT
BRANCH   1   3
ATOM      2  C   ALA A   1      21.253  66.224  45.971  0.00  0.00    +0.238 C 
ATOM      3  N   GLU A   2      20.700  65.057  45.656  0.00  0.00    -0.297 N 
ATOM      4  H   GLU A   2      20.692  64.282  46.349  0.00  0.00    +0.150 HD
ATOM      5  O   ALA A   1      21.326  67.163  45.176  0.00  0.00    -0.274 OA
BRANCH   2   6
ATOM      6  CA  ALA A   1      21.836  66.350  47.370  0.00  0.00    +0.145 C 
ATOM      7  CB  ALA A   1      21.152  67.487  48.118  0.00  0.00    +0.028 C 
BRANCH   6   8
ATOM      8  N   ALA A   1      23.257  66.622  47.222  0.00  0.00    -0.238 NA
ATOM      9  H   ALA A   1      23.613  67.592  47.343  0.00  0.00    +0.142 HD
ENDBRANCH   6   8
ENDBRANCH   2   6
ENDBRANCH   1   3
BRANCH   1  10
ATOM     10  C   GLU A   2      18.945  65.836  44.151  0.00  0.00    +0.241 C 
ATOM     11  N   ASN A   3      18.235  66.137  45.240  0.00  0.00    -0.298 N 
ATOM     12  H   ASN A   3      18.517  65.723  46.152  0.00  0.00    +0.150 HD
ATOM     13  O   GLU A   2      18.716  66.316  43.039  0.00  0.00    -0.273 OA
BRANCH  11  14
ATOM     14  CA  ASN A   3      17.071  67.030  45.199  0.00  0.00    +0.146 C 
BRANCH  14  15
ATOM     15  C   ASN A   3      16.867  67.954  46.398  0.00  0.00    +0.227 C 
ATOM     16  O   ASN A   3      16.286  69.028  46.255  0.00  0.00    -0.286 OA
ENDBRANCH  14  15
BRANCH  14  17
ATOM     17  CB  ASN A   3      15.782  66.208  45.060  0.00  0.00    +0.112 C 
BRANCH  17  18
ATOM     18  CG  ASN A   3      15.580  65.656  43.670  0.00  0.00    +0.222 C 
ATOM     19  ND2 ASN A   3      15.583  64.330  43.547  0.00  0.00    -0.329 N 
ATOM     20 HD21 ASN A   3      15.728  63.730  44.384  0.00  0.00    +0.145 HD
ATOM     21 HD22 ASN A   3      15.441  63.894  42.614  0.00  0.00    +0.145 HD
ATOM     22  OD1 ASN A   3      15.414  66.409  42.717  0.00  0.00    -0.275 OA
ENDBRANCH  17  18
ENDBRANCH  14  17
ENDBRANCH  11  14
ENDBRANCH   1  10
BRANCH   1  23
ATOM     23  CB  GLU A   2      19.601  63.420  44.168  0.00  0.00    +0.041 C 
BRANCH  23  24
ATOM     24  CG  GLU A   2      18.730  63.234  42.921  0.00  0.00    +0.116 C 
BRANCH  24  25
ATOM     25  CD  GLU A   2      18.247  61.807  42.723  0.00  0.00    +0.365 C 
ATOM     26  OE2 GLU A   2      17.949  61.132  43.729  0.00  0.00    -0.246 OA
ATOM     27  OE1 GLU A   2      18.150  61.368  41.556  0.00  0.00    -0.246 OA
ENDBRANCH  24  25
ENDBRANCH  23  24
ENDBRANCH   1  23
TORSDOF 11
REMARK  Name = ../refined-set-2016/1j01/1j01_pocket.pdb
REMARK  130 active torsions:
REMARK  status: ('A' for Active; 'I' for Inactive)
REMARK    1  A    between atoms: _1  and  _3
REMARK    2  A    between atoms: _3  and  _4
REMARK    3  A    between atoms: _7  and  _9
REMARK    4  A    between atoms: _9  and  _10
REMARK    5  A    between atoms: _9  and  _12
REMARK    6  A    between atoms: _12  and  _13
REMARK    7  A    between atoms: _16  and  _18
REMARK    8  A    between atoms: _18  and  _19
REMARK    9  A    between atoms: _22  and  _24
REMARK   10  A    between atoms: _24  and  _25
REMARK   11  A    between atoms: _24  and  _27
REMARK   12  A    between atoms: _27  and  _28
REMARK   13  A    between atoms: _28  and  _29
REMARK   14  A    between atoms: _32  and  _34
REMARK   15  A    between atoms: _34  and  _35
REMARK   16  A    between atoms: _34  and  _37
REMARK   17  A    between atoms: _37  and  _38
REMARK   18  A    between atoms: _43  and  _45
REMARK   19  A    between atoms: _45  and  _46
REMARK   20  A    between atoms: _45  and  _48
REMARK   21  A    between atoms: _48  and  _49
REMARK   22  A    between atoms: _49  and  _50
REMARK   23  A    between atoms: _50  and  _51
REMARK   24  A    between atoms: _51  and  _52
REMARK   25  A    between atoms: _56  and  _58
REMARK   26  A    between atoms: _58  and  _59
REMARK   27  A    between atoms: _58  and  _61
REMARK   28  A    between atoms: _61  and  _62
REMARK   29  A    between atoms: _65  and  _67
REMARK   30  A    between atoms: _67  and  _68
REMARK   31  A    between atoms: _67  and  _70
REMARK   32  A    between atoms: _70  and  _71
REMARK   33  A    between atoms: _76  and  _78
REMARK   34  A    between atoms: _78  and  _79
REMARK   35  A    between atoms: _78  and  _81
REMARK   36  A    between atoms: _81  and  _82
REMARK   37  A    between atoms: _85  and  _87
REMARK   38  A    between atoms: _87  and  _88
REMARK   39  A    between atoms: _87  and  _90
REMARK   40  A    between atoms: _90  and  _91
REMARK   41  A    between atoms: _101  and  _103
REMARK   42  A    between atoms: _103  and  _104
REMARK   43  A    between atoms: _103  and  _106
REMARK   44  A    between atoms: _106  and  _107
REMARK   45  A    between atoms: _109  and  _111
REMARK   46  A    between atoms: _111  and  _112
REMARK   47  A    between atoms: _111  and  _114
REMARK   48  A    between atoms: _114  and  _115
REMARK   49  A    between atoms: _115  and  _116
REMARK   50  A    between atoms: _121  and  _123
REMARK   51  A    between atoms: _123  and  _124
REMARK   52  A    between atoms: _123  and  _126
REMARK   53  A    between atoms: _126  and  _127
REMARK   54  A    between atoms: _130  and  _132
REMARK   55  A    between atoms: _132  and  _133
REMARK   56  A    between atoms: _132  and  _135
REMARK   57  A    between atoms: _135  and  _136
REMARK   58  A    between atoms: _141  and  _143
REMARK   59  A    between atoms: _143  and  _144
REMARK   60  A    between atoms: _143  and  _146
REMARK   61  A    between atoms: _146  and  _147
REMARK   62  A    between atoms: _147  and  _148
REMARK   63  A    between atoms: _151  and  _153
REMARK   64  A    between atoms: _153  and  _154
REMARK   65  A    between atoms: _153  and  _156
REMARK   66  A    between atoms: _156  and  _157
REMARK   67  A    between atoms: _162  and  _164
REMARK   68  A    between atoms: _164  and  _165
REMARK   69  A    between atoms: _164  and  _167
REMARK   70  A    between atoms: _167  and  _168
REMARK   71  A    between atoms: _171  and  _173
REMARK   72  A    between atoms: _173  and  _174
REMARK   73  A    between atoms: _173  and  _176
REMARK   74  A    between atoms: _176  and  _177
REMARK   75  A    between atoms: _182  and  _183
REMARK   76  A    between atoms: _185  and  _187
REMARK   77  A    between atoms: _187  and  _188
REMARK   78  A    between atoms: _187  and  _190
REMARK   79  A    between atoms: _190  and  _191
REMARK   80  A    between atoms: _191  and  _192
REMARK   81  A    between atoms: _197  and  _199
REMARK   82  A    between atoms: _199  and  _200
REMARK   83  A    between atoms: _199  and  _202
REMARK   84  A    between atoms: _202  and  _203
REMARK   85  A    between atoms: _208  and  _210
REMARK   86  A    between atoms: _210  and  _211
REMARK   87  A    between atoms: _210  and  _213
REMARK   88  A    between atoms: _213  and  _214
REMARK   89  A    between atoms: _217  and  _219
REMARK   90  A    between atoms: _219  and  _220
REMARK   91  A    between atoms: _219  and  _222
REMARK   92  A    between atoms: _222  and  _223
REMARK   93  A    between atoms: _223  and  _224
REMARK   94  A    between atoms: _227  and  _229
REMARK   95  A    between atoms: _229  and  _230
REMARK   96  A    between atoms: _229  and  _232
REMARK   97  A    between atoms: _232  and  _233
REMARK   98  A    between atoms: _236  and  _238
REMARK   99  A    between atoms: _238  and  _239
REMARK  100  A    between atoms: _238  and  _241
REMARK  101  A    between atoms: _241  and  _242
REMARK  102  A    between atoms: _252  and  _254
REMARK  103  A    between atoms: _254  and  _255
REMARK  104  A    between atoms: _257  and  _259
REMARK  105  A    between atoms: _259  and  _260
REMARK  106  A    between atoms: _259  and  _262
REMARK  107  A    between atoms: _262  and  _263
REMARK  108  A    between atoms: _268  and  _269
REMARK  109  A    between atoms: _271  and  _273
REMARK  110  A    between atoms: _273  and  _274
REMARK  111  A    between atoms: _273  and  _276
REMARK  112  A    between atoms: _276  and  _277
REMARK  113  A    between atoms: _279  and  _281
REMARK  114  A    between atoms: _281  and  _282
REMARK  115  A    between atoms: _281  and  _284
REMARK  116  A    between atoms: _284  and  _285
REMARK  117  A    between atoms: _295  and  _297
REMARK  118  A    between atoms: _297  and  _298
REMARK  119  A    between atoms: _297  and  _300
REMARK  120  A    between atoms: _303  and  _305
REMARK  121  A    between atoms: _305  and  _306
REMARK  122  A    between atoms: _305  and  _308
REMARK  123  A    between atoms: _308  and  _309
REMARK  124  A    between atoms: _312  and  _314
REMARK  125  A    between atoms: _314  and  _315
REMARK  126  A    between atoms: _314  and  _317
REMARK  127  A    between atoms: _320  and  _322
REMARK  128  A    between atoms: _322  and  _323
REMARK  129  A    between atoms: _322  and  _325
REMARK  130  A    between atoms: _325  and  _326
REMARK                            x       y       z     vdW  Elec       q    Type
REMARK                         _______ _______ _______ _____ _____    ______ ____
ROOT
ATOM      1  CG  LYS A   1      17.300  70.811  43.286  0.00  0.00    -0.000 C 
ENDROOT
BRANCH   1   2
ATOM      2  CB  LYS A   1      16.312  71.715  43.993  0.00  0.00    +0.025 C 
BRANCH   2   3
ATOM      3  CA  LYS A   1      16.988  72.659  44.988  0.00  0.00    +0.133 C 
BRANCH   3   4
ATOM      4  N   LYS A   1      17.513  71.907  46.121  0.00  0.00    -0.239 NA
ATOM      5  H   LYS A   1      17.160  70.945  46.301  0.00  0.00    +0.142 HD
ENDBRANCH   3   4
BRANCH   3   6
ATOM      6  C   LYS A   1      15.991  73.693  45.496  0.00  0.00    +0.224 C 
ATOM      7  O   LYS A   1      15.558  73.643  46.651  0.00  0.00    -0.287 OA
ENDBRANCH   3   6
ENDBRANCH   2   3
ENDBRANCH   1   2
BRANCH   1   8
ATOM      8  CD  LYS A   1      16.625  69.774  42.406  0.00  0.00    -0.024 C 
BRANCH   8   9
ATOM      9  CE  LYS A   1      17.694  68.900  41.750  0.00  0.00    -0.086 C 
BRANCH   9  10
ATOM     10  NZ  LYS A   1      17.135  67.804  40.907  0.00  0.00    +0.380 N 
ATOM     11  HZ1 LYS A   1      16.544  67.183  41.495  0.00  0.00    -0.089 HD
ATOM     12  HZ2 LYS A   1      17.915  67.253  40.495  0.00  0.00    -0.089 HD
ATOM     13  HZ3 LYS A   1      16.558  68.214  40.145  0.00  0.00    -0.089 HD
ENDBRANCH   9  10
ENDBRANCH   8   9
ENDBRANCH   1   8
TORSDOF 7
REMARK  Name = ../refined-set-2016/1j01/1j01_pocket.pdb
REMARK  130 active torsions:
REMARK  status: ('A' for Active; 'I' for Inactive)
REMARK    1  A    between atoms: _1  and  _3
REMARK    2  A    between atoms: _3  and  _4
REMARK    3  A    between atoms: _7  and  _9
REMARK    4  A    between atoms: _9  and  _10
REMARK    5  A    between atoms: _9  and  _12
REMARK    6  A    between atoms: _12  and  _13
REMARK    7  A    between atoms: _16  and  _18
REMARK    8  A    between atoms: _18  and  _19
REMARK    9  A    between atoms: _22  and  _24
REMARK   10  A    between atoms: _24  and  _25
REMARK   11  A    between atoms: _24  and  _27
REMARK   12  A    between atoms: _27  and  _28
REMARK   13  A    between atoms: _28  and  _29
REMARK   14  A    between atoms: _32  and  _34
REMARK   15  A    between atoms: _34  and  _35
REMARK   16  A    between atoms: _34  and  _37
REMARK   17  A    between atoms: _37  and  _38
REMARK   18  A    between atoms: _43  and  _45
REMARK   19  A    between atoms: _45  and  _46
REMARK   20  A    between atoms: _45  and  _48
REMARK   21  A    between atoms: _48  and  _49
REMARK   22  A    between atoms: _49  and  _50
REMARK   23  A    between atoms: _50  and  _51
REMARK   24  A    between atoms: _51  and  _52
REMARK   25  A    between atoms: _56  and  _58
REMARK   26  A    between atoms: _58  and  _59
REMARK   27  A    between atoms: _58  and  _61
REMARK   28  A    between atoms: _61  and  _62
REMARK   29  A    between atoms: _65  and  _67
REMARK   30  A    between atoms: _67  and  _68
REMARK   31  A    between atoms: _67  and  _70
REMARK   32  A    between atoms: _70  and  _71
REMARK   33  A    between atoms: _76  and  _78
REMARK   34  A    between atoms: _78  and  _79
REMARK   35  A    between atoms: _78  and  _81
REMARK   36  A    between atoms: _81  and  _82
REMARK   37  A    between atoms: _85  and  _87
REMARK   38  A    between atoms: _87  and  _88
REMARK   39  A    between atoms: _87  and  _90
REMARK   40  A    between atoms: _90  and  _91
REMARK   41  A    between atoms: _101  and  _103
REMARK   42  A    between atoms: _103  and  _104
REMARK   43  A    between atoms: _103  and  _106
REMARK   44  A    between atoms: _106  and  _107
REMARK   45  A    between atoms: _109  and  _111
REMARK   46  A    between atoms: _111  and  _112
REMARK   47  A    between atoms: _111  and  _114
REMARK   48  A    between atoms: _114  and  _115
REMARK   49  A    between atoms: _115  and  _116
REMARK   50  A    between atoms: _121  and  _123
REMARK   51  A    between atoms: _123  and  _124
REMARK   52  A    between atoms: _123  and  _126
REMARK   53  A    between atoms: _126  and  _127
REMARK   54  A    between atoms: _130  and  _132
REMARK   55  A    between atoms: _132  and  _133
REMARK   56  A    between atoms: _132  and  _135
REMARK   57  A    between atoms: _135  and  _136
REMARK   58  A    between atoms: _141  and  _143
REMARK   59  A    between atoms: _143  and  _144
REMARK   60  A    between atoms: _143  and  _146
REMARK   61  A    between atoms: _146  and  _147
REMARK   62  A    between atoms: _147  and  _148
REMARK   63  A    between atoms: _151  and  _153
REMARK   64  A    between atoms: _153  and  _154
REMARK   65  A    between atoms: _153  and  _156
REMARK   66  A    between atoms: _156  and  _157
REMARK   67  A    between atoms: _162  and  _164
REMARK   68  A    between atoms: _164  and  _165
REMARK   69  A    between atoms: _164  and  _167
REMARK   70  A    between atoms: _167  and  _168
REMARK   71  A    between atoms: _171  and  _173
REMARK   72  A    between atoms: _173  and  _174
REMARK   73  A    between atoms: _173  and  _176
REMARK   74  A    between atoms: _176  and  _177
REMARK   75  A    between atoms: _182  and  _183
REMARK   76  A    between atoms: _185  and  _187
REMARK   77  A    between atoms: _187  and  _188
REMARK   78  A    between atoms: _187  and  _190
REMARK   79  A    between atoms: _190  and  _191
REMARK   80  A    between atoms: _191  and  _192
REMARK   81  A    between atoms: _197  and  _199
REMARK   82  A    between atoms: _199  and  _200
REMARK   83  A    between atoms: _199  and  _202
REMARK   84  A    between atoms: _202  and  _203
REMARK   85  A    between atoms: _208  and  _210
REMARK   86  A    between atoms: _210  and  _211
REMARK   87  A    between atoms: _210  and  _213
REMARK   88  A    between atoms: _213  and  _214
REMARK   89  A    between atoms: _217  and  _219
REMARK   90  A    between atoms: _219  and  _220
REMARK   91  A    between atoms: _219  and  _222
REMARK   92  A    between atoms: _222  and  _223
REMARK   93  A    between atoms: _223  and  _224
REMARK   94  A    between atoms: _227  and  _229
REMARK   95  A    between atoms: _229  and  _230
REMARK   96  A    between atoms: _229  and  _232
REMARK   97  A    between atoms: _232  and  _233
REMARK   98  A    between atoms: _236  and  _238
REMARK   99  A    between atoms: _238  and  _239
REMARK  100  A    between atoms: _238  and  _241
REMARK  101  A    between atoms: _241  and  _242
REMARK  102  A    between atoms: _252  and  _254
REMARK  103  A    between atoms: _254  and  _255
REMARK  104  A    between atoms: _257  and  _259
REMARK  105  A    between atoms: _259  and  _260
REMARK  106  A    between atoms: _259  and  _262
REMARK  107  A    between atoms: _262  and  _263
REMARK  108  A    between atoms: _268  and  _269
REMARK  109  A    between atoms: _271  and  _273
REMARK  110  A    between atoms: _273  and  _274
REMARK  111  A    between atoms: _273  and  _276
REMARK  112  A    between atoms: _276  and  _277
REMARK  113  A    between atoms: _279  and  _281
REMARK  114  A    between atoms: _281  and  _282
REMARK  115  A    between atoms: _281  and  _284
REMARK  116  A    between atoms: _284  and  _285
REMARK  117  A    between atoms: _295  and  _297
REMARK  118  A    between atoms: _297  and  _298
REMARK  119  A    between atoms: _297  and  _300
REMARK  120  A    between atoms: _303  and  _305
REMARK  121  A    between atoms: _305  and  _306
REMARK  122  A    between atoms: _305  and  _308
REMARK  123  A    between atoms: _308  and  _309
REMARK  124  A    between atoms: _312  and  _314
REMARK  125  A    between atoms: _314  and  _315
REMARK  126  A    between atoms: _314  and  _317
REMARK  127  A    between atoms: _320  and  _322
REMARK  128  A    between atoms: _322  and  _323
REMARK  129  A    between atoms: _322  and  _325
REMARK  130  A    between atoms: _325  and  _326
REMARK                            x       y       z     vdW  Elec       q    Type
REMARK                         _______ _______ _______ _____ _____    ______ ____
ROOT
ATOM      1  CA  ASP A   1      11.385  73.809  45.234  0.00  0.00    +0.144 C 
ENDROOT
BRANCH   1   2
ATOM      2  N   ASP A   1      12.682  74.322  44.809  0.00  0.00    -0.239 NA
ATOM      3  H   ASP A   1      13.089  73.999  43.908  0.00  0.00    +0.142 HD
ENDBRANCH   1   2
BRANCH   1   4
ATOM      4  C   ASP A   1      11.445  73.141  46.607  0.00  0.00    +0.225 C 
ATOM      5  O   ASP A   1      10.476  73.179  47.365  0.00  0.00    -0.287 OA
ENDBRANCH   1   4
BRANCH   1   6
ATOM      6  CB  ASP A   1      10.838  72.829  44.186  0.00  0.00    +0.139 C 
BRANCH   6   7
ATOM      7  CG  ASP A   1      11.704  71.583  44.029  0.00  0.00    +0.367 C 
ATOM      8  OD2 ASP A   1      12.886  71.607  44.437  0.00  0.00    -0.246 OA
ATOM      9  OD1 ASP A   1      11.203  70.577  43.479  0.00  0.00    -0.246 OA
ENDBRANCH   6   7
ENDBRANCH   1   6
TORSDOF 4
REMARK  Name = ../refined-set-2016/1j01/1j01_pocket.pdb
REMARK  130 active torsions:
REMARK  status: ('A' for Active; 'I' for Inactive)
REMARK    1  A    between atoms: _1  and  _3
REMARK    2  A    between atoms: _3  and  _4
REMARK    3  A    between atoms: _7  and  _9
REMARK    4  A    between atoms: _9  and  _10
REMARK    5  A    between atoms: _9  and  _12
REMARK    6  A    between atoms: _12  and  _13
REMARK    7  A    between atoms: _16  and  _18
REMARK    8  A    between atoms: _18  and  _19
REMARK    9  A    between atoms: _22  and  _24
REMARK   10  A    between atoms: _24  and  _25
REMARK   11  A    between atoms: _24  and  _27
REMARK   12  A    between atoms: _27  and  _28
REMARK   13  A    between atoms: _28  and  _29
REMARK   14  A    between atoms: _32  and  _34
REMARK   15  A    between atoms: _34  and  _35
REMARK   16  A    between atoms: _34  and  _37
REMARK   17  A    between atoms: _37  and  _38
REMARK   18  A    between atoms: _43  and  _45
REMARK   19  A    between atoms: _45  and  _46
REMARK   20  A    between atoms: _45  and  _48
REMARK   21  A    between atoms: _48  and  _49
REMARK   22  A    between atoms: _49  and  _50
REMARK   23  A    between atoms: _50  and  _51
REMARK   24  A    between atoms: _51  and  _52
REMARK   25  A    between atoms: _56  and  _58
REMARK   26  A    between atoms: _58  and  _59
REMARK   27  A    between atoms: _58  and  _61
REMARK   28  A    between atoms: _61  and  _62
REMARK   29  A    between atoms: _65  and  _67
REMARK   30  A    between atoms: _67  and  _68
REMARK   31  A    between atoms: _67  and  _70
REMARK   32  A    between atoms: _70  and  _71
REMARK   33  A    between atoms: _76  and  _78
REMARK   34  A    between atoms: _78  and  _79
REMARK   35  A    between atoms: _78  and  _81
REMARK   36  A    between atoms: _81  and  _82
REMARK   37  A    between atoms: _85  and  _87
REMARK   38  A    between atoms: _87  and  _88
REMARK   39  A    between atoms: _87  and  _90
REMARK   40  A    between atoms: _90  and  _91
REMARK   41  A    between atoms: _101  and  _103
REMARK   42  A    between atoms: _103  and  _104
REMARK   43  A    between atoms: _103  and  _106
REMARK   44  A    between atoms: _106  and  _107
REMARK   45  A    between atoms: _109  and  _111
REMARK   46  A    between atoms: _111  and  _112
REMARK   47  A    between atoms: _111  and  _114
REMARK   48  A    between atoms: _114  and  _115
REMARK   49  A    between atoms: _115  and  _116
REMARK   50  A    between atoms: _121  and  _123
REMARK   51  A    between atoms: _123  and  _124
REMARK   52  A    between atoms: _123  and  _126
REMARK   53  A    between atoms: _126  and  _127
REMARK   54  A    between atoms: _130  and  _132
REMARK   55  A    between atoms: _132  and  _133
REMARK   56  A    between atoms: _132  and  _135
REMARK   57  A    between atoms: _135  and  _136
REMARK   58  A    between atoms: _141  and  _143
REMARK   59  A    between atoms: _143  and  _144
REMARK   60  A    between atoms: _143  and  _146
REMARK   61  A    between atoms: _146  and  _147
REMARK   62  A    between atoms: _147  and  _148
REMARK   63  A    between atoms: _151  and  _153
REMARK   64  A    between atoms: _153  and  _154
REMARK   65  A    between atoms: _153  and  _156
REMARK   66  A    between atoms: _156  and  _157
REMARK   67  A    between atoms: _162  and  _164
REMARK   68  A    between atoms: _164  and  _165
REMARK   69  A    between atoms: _164  and  _167
REMARK   70  A    between atoms: _167  and  _168
REMARK   71  A    between atoms: _171  and  _173
REMARK   72  A    between atoms: _173  and  _174
REMARK   73  A    between atoms: _173  and  _176
REMARK   74  A    between atoms: _176  and  _177
REMARK   75  A    between atoms: _182  and  _183
REMARK   76  A    between atoms: _185  and  _187
REMARK   77  A    between atoms: _187  and  _188
REMARK   78  A    between atoms: _187  and  _190
REMARK   79  A    between atoms: _190  and  _191
REMARK   80  A    between atoms: _191  and  _192
REMARK   81  A    between atoms: _197  and  _199
REMARK   82  A    between atoms: _199  and  _200
REMARK   83  A    between atoms: _199  and  _202
REMARK   84  A    between atoms: _202  and  _203
REMARK   85  A    between atoms: _208  and  _210
REMARK   86  A    between atoms: _210  and  _211
REMARK   87  A    between atoms: _210  and  _213
REMARK   88  A    between atoms: _213  and  _214
REMARK   89  A    between atoms: _217  and  _219
REMARK   90  A    between atoms: _219  and  _220
REMARK   91  A    between atoms: _219  and  _222
REMARK   92  A    between atoms: _222  and  _223
REMARK   93  A    between atoms: _223  and  _224
REMARK   94  A    between atoms: _227  and  _229
REMARK   95  A    between atoms: _229  and  _230
REMARK   96  A    between atoms: _229  and  _232
REMARK   97  A    between atoms: _232  and  _233
REMARK   98  A    between atoms: _236  and  _238
REMARK   99  A    between atoms: _238  and  _239
REMARK  100  A    between atoms: _238  and  _241
REMARK  101  A    between atoms: _241  and  _242
REMARK  102  A    between atoms: _252  and  _254
REMARK  103  A    between atoms: _254  and  _255
REMARK  104  A    between atoms: _257  and  _259
REMARK  105  A    between atoms: _259  and  _260
REMARK  106  A    between atoms: _259  and  _262
REMARK  107  A    between atoms: _262  and  _263
REMARK  108  A    between atoms: _268  and  _269
REMARK  109  A    between atoms: _271  and  _273
REMARK  110  A    between atoms: _273  and  _274
REMARK  111  A    between atoms: _273  and  _276
REMARK  112  A    between atoms: _276  and  _277
REMARK  113  A    between atoms: _279  and  _281
REMARK  114  A    between atoms: _281  and  _282
REMARK  115  A    between atoms: _281  and  _284
REMARK  116  A    between atoms: _284  and  _285
REMARK  117  A    between atoms: _295  and  _297
REMARK  118  A    between atoms: _297  and  _298
REMARK  119  A    between atoms: _297  and  _300
REMARK  120  A    between atoms: _303  and  _305
REMARK  121  A    between atoms: _305  and  _306
REMARK  122  A    between atoms: _305  and  _308
REMARK  123  A    between atoms: _308  and  _309
REMARK  124  A    between atoms: _312  and  _314
REMARK  125  A    between atoms: _314  and  _315
REMARK  126  A    between atoms: _314  and  _317
REMARK  127  A    between atoms: _320  and  _322
REMARK  128  A    between atoms: _322  and  _323
REMARK  129  A    between atoms: _322  and  _325
REMARK  130  A    between atoms: _325  and  _326
REMARK                            x       y       z     vdW  Elec       q    Type
REMARK                         _______ _______ _______ _____ _____    ______ ____
ROOT
ATOM      1  C   HIS A   1      21.727  71.986  44.362  0.00  0.00    +0.239 C 
ATOM      2  O   HIS A   1      21.118  71.172  45.048  0.00  0.00    -0.274 OA
ATOM      3  N   THR A   2      21.137  73.096  43.911  0.00  0.00    -0.296 N 
ATOM      4  H   THR A   2      20.133  73.225  44.152  0.00  0.00    +0.150 HD
ENDROOT
BRANCH   1   5
ATOM      5  CA  HIS A   1      23.204  71.731  44.045  0.00  0.00    +0.151 C 
BRANCH   5   6
ATOM      6  N   HIS A   1      23.932  71.697  45.315  0.00  0.00    -0.238 NA
ATOM      7  H   HIS A   1      23.466  71.282  46.147  0.00  0.00    +0.142 HD
ENDBRANCH   5   6
BRANCH   5   8
ATOM      8  CB  HIS A   1      23.348  70.371  43.342  0.00  0.00    +0.074 C 
BRANCH   8   9
ATOM      9  CG  HIS A   1      22.656  70.287  42.016  0.00  0.00    +0.082 A 
ATOM     10  CD2 HIS A   1      21.476  69.722  41.661  0.00  0.00    +0.115 A 
ATOM     11  NE2 HIS A   1      21.306  69.946  40.317  0.00  0.00    -0.221 NA
ATOM     12  CE1 HIS A   1      22.345  70.624  39.860  0.00  0.00    +0.199 A 
ATOM     13  ND1 HIS A   1      23.174  70.842  40.866  0.00  0.00    -0.227 NA
ENDBRANCH   8   9
ENDBRANCH   5   8
ENDBRANCH   1   5
BRANCH   3  14
ATOM     14  CA  THR A   2      21.765  74.149  43.111  0.00  0.00    +0.164 C 
BRANCH  14  15
ATOM     15  C   THR A   2      20.965  75.415  43.436  0.00  0.00    +0.229 C 
ATOM     16  O   THR A   2      19.758  75.342  43.666  0.00  0.00    -0.286 OA
ENDBRANCH  14  15
BRANCH  14  17
ATOM     17  CB  THR A   2      21.671  73.852  41.593  0.00  0.00    +0.136 C 
ATOM     18  CG2 THR A   2      20.226  73.602  41.177  0.00  0.00    +0.034 C 
BRANCH  17  19
ATOM     19  OG1 THR A   2      22.180  74.968  40.854  0.00  0.00    -0.382 OA
ATOM     20  HG1 THR A   2      23.126  75.123  41.102  0.00  0.00    +0.210 HD
ENDBRANCH  17  19
ENDBRANCH  14  17
ENDBRANCH   3  14
TORSDOF 8
REMARK  Name = ../refined-set-2016/1j01/1j01_pocket.pdb
REMARK  130 active torsions:
REMARK  status: ('A' for Active; 'I' for Inactive)
REMARK    1  A    between atoms: _1  and  _3
REMARK    2  A    between atoms: _3  and  _4
REMARK    3  A    between atoms: _7  and  _9
REMARK    4  A    between atoms: _9  and  _10
REMARK    5  A    between atoms: _9  and  _12
REMARK    6  A    between atoms: _12  and  _13
REMARK    7  A    between atoms: _16  and  _18
REMARK    8  A    between atoms: _18  and  _19
REMARK    9  A    between atoms: _22  and  _24
REMARK   10  A    between atoms: _24  and  _25
REMARK   11  A    between atoms: _24  and  _27
REMARK   12  A    between atoms: _27  and  _28
REMARK   13  A    between atoms: _28  and  _29
REMARK   14  A    between atoms: _32  and  _34
REMARK   15  A    between atoms: _34  and  _35
REMARK   16  A    between atoms: _34  and  _37
REMARK   17  A    between atoms: _37  and  _38
REMARK   18  A    between atoms: _43  and  _45
REMARK   19  A    between atoms: _45  and  _46
REMARK   20  A    between atoms: _45  and  _48
REMARK   21  A    between atoms: _48  and  _49
REMARK   22  A    between atoms: _49  and  _50
REMARK   23  A    between atoms: _50  and  _51
REMARK   24  A    between atoms: _51  and  _52
REMARK   25  A    between atoms: _56  and  _58
REMARK   26  A    between atoms: _58  and  _59
REMARK   27  A    between atoms: _58  and  _61
REMARK   28  A    between atoms: _61  and  _62
REMARK   29  A    between atoms: _65  and  _67
REMARK   30  A    between atoms: _67  and  _68
REMARK   31  A    between atoms: _67  and  _70
REMARK   32  A    between atoms: _70  and  _71
REMARK   33  A    between atoms: _76  and  _78
REMARK   34  A    between atoms: _78  and  _79
REMARK   35  A    between atoms: _78  and  _81
REMARK   36  A    between atoms: _81  and  _82
REMARK   37  A    between atoms: _85  and  _87
REMARK   38  A    between atoms: _87  and  _88
REMARK   39  A    between atoms: _87  and  _90
REMARK   40  A    between atoms: _90  and  _91
REMARK   41  A    between atoms: _101  and  _103
REMARK   42  A    between atoms: _103  and  _104
REMARK   43  A    between atoms: _103  and  _106
REMARK   44  A    between atoms: _106  and  _107
REMARK   45  A    between atoms: _109  and  _111
REMARK   46  A    between atoms: _111  and  _112
REMARK   47  A    between atoms: _111  and  _114
REMARK   48  A    between atoms: _114  and  _115
REMARK   49  A    between atoms: _115  and  _116
REMARK   50  A    between atoms: _121  and  _123
REMARK   51  A    between atoms: _123  and  _124
REMARK   52  A    between atoms: _123  and  _126
REMARK   53  A    between atoms: _126  and  _127
REMARK   54  A    between atoms: _130  and  _132
REMARK   55  A    between atoms: _132  and  _133
REMARK   56  A    between atoms: _132  and  _135
REMARK   57  A    between atoms: _135  and  _136
REMARK   58  A    between atoms: _141  and  _143
REMARK   59  A    between atoms: _143  and  _144
REMARK   60  A    between atoms: _143  and  _146
REMARK   61  A    between atoms: _146  and  _147
REMARK   62  A    between atoms: _147  and  _148
REMARK   63  A    between atoms: _151  and  _153
REMARK   64  A    between atoms: _153  and  _154
REMARK   65  A    between atoms: _153  and  _156
REMARK   66  A    between atoms: _156  and  _157
REMARK   67  A    between atoms: _162  and  _164
REMARK   68  A    between atoms: _164  and  _165
REMARK   69  A    between atoms: _164  and  _167
REMARK   70  A    between atoms: _167  and  _168
REMARK   71  A    between atoms: _171  and  _173
REMARK   72  A    between atoms: _173  and  _174
REMARK   73  A    between atoms: _173  and  _176
REMARK   74  A    between atoms: _176  and  _177
REMARK   75  A    between atoms: _182  and  _183
REMARK   76  A    between atoms: _185  and  _187
REMARK   77  A    between atoms: _187  and  _188
REMARK   78  A    between atoms: _187  and  _190
REMARK   79  A    between atoms: _190  and  _191
REMARK   80  A    between atoms: _191  and  _192
REMARK   81  A    between atoms: _197  and  _199
REMARK   82  A    between atoms: _199  and  _200
REMARK   83  A    between atoms: _199  and  _202
REMARK   84  A    between atoms: _202  and  _203
REMARK   85  A    between atoms: _208  and  _210
REMARK   86  A    between atoms: _210  and  _211
REMARK   87  A    between atoms: _210  and  _213
REMARK   88  A    between atoms: _213  and  _214
REMARK   89  A    between atoms: _217  and  _219
REMARK   90  A    between atoms: _219  and  _220
REMARK   91  A    between atoms: _219  and  _222
REMARK   92  A    between atoms: _222  and  _223
REMARK   93  A    between atoms: _223  and  _224
REMARK   94  A    between atoms: _227  and  _229
REMARK   95  A    between atoms: _229  and  _230
REMARK   96  A    between atoms: _229  and  _232
REMARK   97  A    between atoms: _232  and  _233
REMARK   98  A    between atoms: _236  and  _238
REMARK   99  A    between atoms: _238  and  _239
REMARK  100  A    between atoms: _238  and  _241
REMARK  101  A    between atoms: _241  and  _242
REMARK  102  A    between atoms: _252  and  _254
REMARK  103  A    between atoms: _254  and  _255
REMARK  104  A    between atoms: _257  and  _259
REMARK  105  A    between atoms: _259  and  _260
REMARK  106  A    between atoms: _259  and  _262
REMARK  107  A    between atoms: _262  and  _263
REMARK  108  A    between atoms: _268  and  _269
REMARK  109  A    between atoms: _271  and  _273
REMARK  110  A    between atoms: _273  and  _274
REMARK  111  A    between atoms: _273  and  _276
REMARK  112  A    between atoms: _276  and  _277
REMARK  113  A    between atoms: _279  and  _281
REMARK  114  A    between atoms: _281  and  _282
REMARK  115  A    between atoms: _281  and  _284
REMARK  116  A    between atoms: _284  and  _285
REMARK  117  A    between atoms: _295  and  _297
REMARK  118  A    between atoms: _297  and  _298
REMARK  119  A    between atoms: _297  and  _300
REMARK  120  A    between atoms: _303  and  _305
REMARK  121  A    between atoms: _305  and  _306
REMARK  122  A    between atoms: _305  and  _308
REMARK  123  A    between atoms: _308  and  _309
REMARK  124  A    between atoms: _312  and  _314
REMARK  125  A    between atoms: _314  and  _315
REMARK  126  A    between atoms: _314  and  _317
REMARK  127  A    between atoms: _320  and  _322
REMARK  128  A    between atoms: _322  and  _323
REMARK  129  A    between atoms: _322  and  _325
REMARK  130  A    between atoms: _325  and  _326
REMARK                            x       y       z     vdW  Elec       q    Type
REMARK                         _______ _______ _______ _____ _____    ______ ____
ROOT
ATOM      1  CG  TRP A   1      18.073  74.239  37.549  0.00  0.00    -0.002 A 
ATOM      2  CD2 TRP A   1      17.680  72.883  37.808  0.00  0.00    +0.013 A 
ATOM      3  CE3 TRP A   1      17.253  72.197  38.954  0.00  0.00    +0.001 A 
ATOM      4  CZ3 TRP A   1      16.940  70.842  38.848  0.00  0.00    +0.000 A 
ATOM      5  CH2 TRP A   1      17.049  70.168  37.619  0.00  0.00    +0.001 A 
ATOM      6  CZ2 TRP A   1      17.465  70.816  36.481  0.00  0.00    +0.017 A 
ATOM      7  CE2 TRP A   1      17.780  72.179  36.590  0.00  0.00    +0.056 A 
ATOM      8  NE1 TRP A   1      18.210  73.064  35.637  0.00  0.00    -0.352 N 
ATOM      9  HE1 TRP A   1      18.378  72.840  34.635  0.00  0.00    +0.166 HD
ATOM     10  CD1 TRP A   1      18.384  74.299  36.221  0.00  0.00    +0.068 A 
ENDROOT
BRANCH   1  11
ATOM     11  CB  TRP A   1      18.192  75.348  38.565  0.00  0.00    +0.053 C 
BRANCH  11  12
ATOM     12  CA  TRP A   1      17.984  76.772  38.031  0.00  0.00    +0.137 C 
BRANCH  12  13
ATOM     13  N   TRP A   1      18.261  77.731  39.103  0.00  0.00    -0.239 NA
ATOM     14  H   TRP A   1      17.475  78.060  39.699  0.00  0.00    +0.142 HD
ENDBRANCH  12  13
BRANCH  12  15
ATOM     15  C   TRP A   1      16.549  76.974  37.537  0.00  0.00    +0.224 C 
ATOM     16  O   TRP A   1      15.645  77.229  38.330  0.00  0.00    -0.287 OA
ENDBRANCH  12  15
ENDBRANCH  11  12
ENDBRANCH   1  11
TORSDOF 4
REMARK  Name = ../refined-set-2016/1j01/1j01_pocket.pdb
REMARK  130 active torsions:
REMARK  status: ('A' for Active; 'I' for Inactive)
REMARK    1  A    between atoms: _1  and  _3
REMARK    2  A    between atoms: _3  and  _4
REMARK    3  A    between atoms: _7  and  _9
REMARK    4  A    between atoms: _9  and  _10
REMARK    5  A    between atoms: _9  and  _12
REMARK    6  A    between atoms: _12  and  _13
REMARK    7  A    between atoms: _16  and  _18
REMARK    8  A    between atoms: _18  and  _19
REMARK    9  A    between atoms: _22  and  _24
REMARK   10  A    between atoms: _24  and  _25
REMARK   11  A    between atoms: _24  and  _27
REMARK   12  A    between atoms: _27  and  _28
REMARK   13  A    between atoms: _28  and  _29
REMARK   14  A    between atoms: _32  and  _34
REMARK   15  A    between atoms: _34  and  _35
REMARK   16  A    between atoms: _34  and  _37
REMARK   17  A    between atoms: _37  and  _38
REMARK   18  A    between atoms: _43  and  _45
REMARK   19  A    between atoms: _45  and  _46
REMARK   20  A    between atoms: _45  and  _48
REMARK   21  A    between atoms: _48  and  _49
REMARK   22  A    between atoms: _49  and  _50
REMARK   23  A    between atoms: _50  and  _51
REMARK   24  A    between atoms: _51  and  _52
REMARK   25  A    between atoms: _56  and  _58
REMARK   26  A    between atoms: _58  and  _59
REMARK   27  A    between atoms: _58  and  _61
REMARK   28  A    between atoms: _61  and  _62
REMARK   29  A    between atoms: _65  and  _67
REMARK   30  A    between atoms: _67  and  _68
REMARK   31  A    between atoms: _67  and  _70
REMARK   32  A    between atoms: _70  and  _71
REMARK   33  A    between atoms: _76  and  _78
REMARK   34  A    between atoms: _78  and  _79
REMARK   35  A    between atoms: _78  and  _81
REMARK   36  A    between atoms: _81  and  _82
REMARK   37  A    between atoms: _85  and  _87
REMARK   38  A    between atoms: _87  and  _88
REMARK   39  A    between atoms: _87  and  _90
REMARK   40  A    between atoms: _90  and  _91
REMARK   41  A    between atoms: _101  and  _103
REMARK   42  A    between atoms: _103  and  _104
REMARK   43  A    between atoms: _103  and  _106
REMARK   44  A    between atoms: _106  and  _107
REMARK   45  A    between atoms: _109  and  _111
REMARK   46  A    between atoms: _111  and  _112
REMARK   47  A    between atoms: _111  and  _114
REMARK   48  A    between atoms: _114  and  _115
REMARK   49  A    between atoms: _115  and  _116
REMARK   50  A    between atoms: _121  and  _123
REMARK   51  A    between atoms: _123  and  _124
REMARK   52  A    between atoms: _123  and  _126
REMARK   53  A    between atoms: _126  and  _127
REMARK   54  A    between atoms: _130  and  _132
REMARK   55  A    between atoms: _132  and  _133
REMARK   56  A    between atoms: _132  and  _135
REMARK   57  A    between atoms: _135  and  _136
REMARK   58  A    between atoms: _141  and  _143
REMARK   59  A    between atoms: _143  and  _144
REMARK   60  A    between atoms: _143  and  _146
REMARK   61  A    between atoms: _146  and  _147
REMARK   62  A    between atoms: _147  and  _148
REMARK   63  A    between atoms: _151  and  _153
REMARK   64  A    between atoms: _153  and  _154
REMARK   65  A    between atoms: _153  and  _156
REMARK   66  A    between atoms: _156  and  _157
REMARK   67  A    between atoms: _162  and  _164
REMARK   68  A    between atoms: _164  and  _165
REMARK   69  A    between atoms: _164  and  _167
REMARK   70  A    between atoms: _167  and  _168
REMARK   71  A    between atoms: _171  and  _173
REMARK   72  A    between atoms: _173  and  _174
REMARK   73  A    between atoms: _173  and  _176
REMARK   74  A    between atoms: _176  and  _177
REMARK   75  A    between atoms: _182  and  _183
REMARK   76  A    between atoms: _185  and  _187
REMARK   77  A    between atoms: _187  and  _188
REMARK   78  A    between atoms: _187  and  _190
REMARK   79  A    between atoms: _190  and  _191
REMARK   80  A    between atoms: _191  and  _192
REMARK   81  A    between atoms: _197  and  _199
REMARK   82  A    between atoms: _199  and  _200
REMARK   83  A    between atoms: _199  and  _202
REMARK   84  A    between atoms: _202  and  _203
REMARK   85  A    between atoms: _208  and  _210
REMARK   86  A    between atoms: _210  and  _211
REMARK   87  A    between atoms: _210  and  _213
REMARK   88  A    between atoms: _213  and  _214
REMARK   89  A    between atoms: _217  and  _219
REMARK   90  A    between atoms: _219  and  _220
REMARK   91  A    between atoms: _219  and  _222
REMARK   92  A    between atoms: _222  and  _223
REMARK   93  A    between atoms: _223  and  _224
REMARK   94  A    between atoms: _227  and  _229
REMARK   95  A    between atoms: _229  and  _230
REMARK   96  A    between atoms: _229  and  _232
REMARK   97  A    between atoms: _232  and  _233
REMARK   98  A    between atoms: _236  and  _238
REMARK   99  A    between atoms: _238  and  _239
REMARK  100  A    between atoms: _238  and  _241
REMARK  101  A    between atoms: _241  and  _242
REMARK  102  A    between atoms: _252  and  _254
REMARK  103  A    between atoms: _254  and  _255
REMARK  104  A    between atoms: _257  and  _259
REMARK  105  A    between atoms: _259  and  _260
REMARK  106  A    between atoms: _259  and  _262
REMARK  107  A    between atoms: _262  and  _263
REMARK  108  A    between atoms: _268  and  _269
REMARK  109  A    between atoms: _271  and  _273
REMARK  110  A    between atoms: _273  and  _274
REMARK  111  A    between atoms: _273  and  _276
REMARK  112  A    between atoms: _276  and  _277
REMARK  113  A    between atoms: _279  and  _281
REMARK  114  A    between atoms: _281  and  _282
REMARK  115  A    between atoms: _281  and  _284
REMARK  116  A    between atoms: _284  and  _285
REMARK  117  A    between atoms: _295  and  _297
REMARK  118  A    between atoms: _297  and  _298
REMARK  119  A    between atoms: _297  and  _300
REMARK  120  A    between atoms: _303  and  _305
REMARK  121  A    between atoms: _305  and  _306
REMARK  122  A    between atoms: _305  and  _308
REMARK  123  A    between atoms: _308  and  _309
REMARK  124  A    between atoms: _312  and  _314
REMARK  125  A    between atoms: _314  and  _315
REMARK  126  A    between atoms: _314  and  _317
REMARK  127  A    between atoms: _320  and  _322
REMARK  128  A    between atoms: _322  and  _323
REMARK  129  A    between atoms: _322  and  _325
REMARK  130  A    between atoms: _325  and  _326
REMARK                            x       y       z     vdW  Elec       q    Type
REMARK                         _______ _______ _______ _____ _____    ______ ____
ROOT
ATOM      1  C   SER A   1      13.472  73.457  38.001  0.00  0.00    +0.241 C 
ATOM      2  O   SER A   1      14.233  73.945  38.833  0.00  0.00    -0.274 OA
ATOM      3  N   GLN A   2      12.381  72.778  38.335  0.00  0.00    -0.298 N 
ATOM      4  H   GLN A   2      11.787  72.373  37.583  0.00  0.00    +0.150 HD
ENDROOT
BRANCH   1   5
ATOM      5  CA  SER A   1      13.745  73.602  36.505  0.00  0.00    +0.174 C 
BRANCH   5   6
ATOM      6  N   SER A   1      14.579  74.760  36.222  0.00  0.00    -0.236 NA
ATOM      7  H   SER A   1      15.614  74.656  36.228  0.00  0.00    +0.142 HD
ENDBRANCH   5   6
BRANCH   5   8
ATOM      8  CB  SER A   1      14.420  72.340  35.962  0.00  0.00    +0.163 C 
BRANCH   8   9
ATOM      9  OG  SER A   1      13.540  71.235  36.010  0.00  0.00    -0.380 OA
ATOM     10  H   SER A   1      13.999  70.433  35.654  0.00  0.00    +0.211 HD
ENDBRANCH   8   9
ENDBRANCH   5   8
ENDBRANCH   1   5
BRANCH   3  11
ATOM     11  CA  GLN A   2      11.993  72.584  39.728  0.00  0.00    +0.137 C 
BRANCH  11  12
ATOM     12  C   GLN A   2      11.953  73.927  40.454  0.00  0.00    +0.227 C 
ATOM     13  O   GLN A   2      12.462  74.077  41.572  0.00  0.00    -0.286 OA
ENDBRANCH  11  12
BRANCH  11  14
ATOM     14  CB  GLN A   2      12.949  71.599  40.422  0.00  0.00    +0.037 C 
BRANCH  14  15
ATOM     15  CG  GLN A   2      12.826  70.169  39.869  0.00  0.00    +0.087 C 
BRANCH  15  16
ATOM     16  CD  GLN A   2      13.643  69.144  40.632  0.00  0.00    +0.219 C 
ATOM     17  OE1 GLN A   2      13.346  68.818  41.782  0.00  0.00    -0.275 OA
ATOM     18  NE2 GLN A   2      14.682  68.631  39.992  0.00  0.00    -0.329 N 
ATOM     19 HE21 GLN A   2      15.284  67.924  40.460  0.00  0.00    +0.145 HD
ATOM     20 HE22 GLN A   2      14.896  68.935  39.021  0.00  0.00    +0.145 HD
ENDBRANCH  15  16
ENDBRANCH  14  15
ENDBRANCH  11  14
ENDBRANCH   3  11
TORSDOF 9
REMARK  Name = ../refined-set-2016/1j01/1j01_pocket.pdb
REMARK  130 active torsions:
REMARK  status: ('A' for Active; 'I' for Inactive)
REMARK    1  A    between atoms: _1  and  _3
REMARK    2  A    between atoms: _3  and  _4
REMARK    3  A    between atoms: _7  and  _9
REMARK    4  A    between atoms: _9  and  _10
REMARK    5  A    between atoms: _9  and  _12
REMARK    6  A    between atoms: _12  and  _13
REMARK    7  A    between atoms: _16  and  _18
REMARK    8  A    between atoms: _18  and  _19
REMARK    9  A    between atoms: _22  and  _24
REMARK   10  A    between atoms: _24  and  _25
REMARK   11  A    between atoms: _24  and  _27
REMARK   12  A    between atoms: _27  and  _28
REMARK   13  A    between atoms: _28  and  _29
REMARK   14  A    between atoms: _32  and  _34
REMARK   15  A    between atoms: _34  and  _35
REMARK   16  A    between atoms: _34  and  _37
REMARK   17  A    between atoms: _37  and  _38
REMARK   18  A    between atoms: _43  and  _45
REMARK   19  A    between atoms: _45  and  _46
REMARK   20  A    between atoms: _45  and  _48
REMARK   21  A    between atoms: _48  and  _49
REMARK   22  A    between atoms: _49  and  _50
REMARK   23  A    between atoms: _50  and  _51
REMARK   24  A    between atoms: _51  and  _52
REMARK   25  A    between atoms: _56  and  _58
REMARK   26  A    between atoms: _58  and  _59
REMARK   27  A    between atoms: _58  and  _61
REMARK   28  A    between atoms: _61  and  _62
REMARK   29  A    between atoms: _65  and  _67
REMARK   30  A    between atoms: _67  and  _68
REMARK   31  A    between atoms: _67  and  _70
REMARK   32  A    between atoms: _70  and  _71
REMARK   33  A    between atoms: _76  and  _78
REMARK   34  A    between atoms: _78  and  _79
REMARK   35  A    between atoms: _78  and  _81
REMARK   36  A    between atoms: _81  and  _82
REMARK   37  A    between atoms: _85  and  _87
REMARK   38  A    between atoms: _87  and  _88
REMARK   39  A    between atoms: _87  and  _90
REMARK   40  A    between atoms: _90  and  _91
REMARK   41  A    between atoms: _101  and  _103
REMARK   42  A    between atoms: _103  and  _104
REMARK   43  A    between atoms: _103  and  _106
REMARK   44  A    between atoms: _106  and  _107
REMARK   45  A    between atoms: _109  and  _111
REMARK   46  A    between atoms: _111  and  _112
REMARK   47  A    between atoms: _111  and  _114
REMARK   48  A    between atoms: _114  and  _115
REMARK   49  A    between atoms: _115  and  _116
REMARK   50  A    between atoms: _121  and  _123
REMARK   51  A    between atoms: _123  and  _124
REMARK   52  A    between atoms: _123  and  _126
REMARK   53  A    between atoms: _126  and  _127
REMARK   54  A    between atoms: _130  and  _132
REMARK   55  A    between atoms: _132  and  _133
REMARK   56  A    between atoms: _132  and  _135
REMARK   57  A    between atoms: _135  and  _136
REMARK   58  A    between atoms: _141  and  _143
REMARK   59  A    between atoms: _143  and  _144
REMARK   60  A    between atoms: _143  and  _146
REMARK   61  A    between atoms: _146  and  _147
REMARK   62  A    between atoms: _147  and  _148
REMARK   63  A    between atoms: _151  and  _153
REMARK   64  A    between atoms: _153  and  _154
REMARK   65  A    between atoms: _153  and  _156
REMARK   66  A    between atoms: _156  and  _157
REMARK   67  A    between atoms: _162  and  _164
REMARK   68  A    between atoms: _164  and  _165
REMARK   69  A    between atoms: _164  and  _167
REMARK   70  A    between atoms: _167  and  _168
REMARK   71  A    between atoms: _171  and  _173
REMARK   72  A    between atoms: _173  and  _174
REMARK   73  A    between atoms: _173  and  _176
REMARK   74  A    between atoms: _176  and  _177
REMARK   75  A    between atoms: _182  and  _183
REMARK   76  A    between atoms: _185  and  _187
REMARK   77  A    between atoms: _187  and  _188
REMARK   78  A    between atoms: _187  and  _190
REMARK   79  A    between atoms: _190  and  _191
REMARK   80  A    between atoms: _191  and  _192
REMARK   81  A    between atoms: _197  and  _199
REMARK   82  A    between atoms: _199  and  _200
REMARK   83  A    between atoms: _199  and  _202
REMARK   84  A    between atoms: _202  and  _203
REMARK   85  A    between atoms: _208  and  _210
REMARK   86  A    between atoms: _210  and  _211
REMARK   87  A    between atoms: _210  and  _213
REMARK   88  A    between atoms: _213  and  _214
REMARK   89  A    between atoms: _217  and  _219
REMARK   90  A    between atoms: _219  and  _220
REMARK   91  A    between atoms: _219  and  _222
REMARK   92  A    between atoms: _222  and  _223
REMARK   93  A    between atoms: _223  and  _224
REMARK   94  A    between atoms: _227  and  _229
REMARK   95  A    between atoms: _229  and  _230
REMARK   96  A    between atoms: _229  and  _232
REMARK   97  A    between atoms: _232  and  _233
REMARK   98  A    between atoms: _236  and  _238
REMARK   99  A    between atoms: _238  and  _239
REMARK  100  A    between atoms: _238  and  _241
REMARK  101  A    between atoms: _241  and  _242
REMARK  102  A    between atoms: _252  and  _254
REMARK  103  A    between atoms: _254  and  _255
REMARK  104  A    between atoms: _257  and  _259
REMARK  105  A    between atoms: _259  and  _260
REMARK  106  A    between atoms: _259  and  _262
REMARK  107  A    between atoms: _262  and  _263
REMARK  108  A    between atoms: _268  and  _269
REMARK  109  A    between atoms: _271  and  _273
REMARK  110  A    between atoms: _273  and  _274
REMARK  111  A    between atoms: _273  and  _276
REMARK  112  A    between atoms: _276  and  _277
REMARK  113  A    between atoms: _279  and  _281
REMARK  114  A    between atoms: _281  and  _282
REMARK  115  A    between atoms: _281  and  _284
REMARK  116  A    between atoms: _284  and  _285
REMARK  117  A    between atoms: _295  and  _297
REMARK  118  A    between atoms: _297  and  _298
REMARK  119  A    between atoms: _297  and  _300
REMARK  120  A    between atoms: _303  and  _305
REMARK  121  A    between atoms: _305  and  _306
REMARK  122  A    between atoms: _305  and  _308
REMARK  123  A    between atoms: _308  and  _309
REMARK  124  A    between atoms: _312  and  _314
REMARK  125  A    between atoms: _314  and  _315
REMARK  126  A    between atoms: _314  and  _317
REMARK  127  A    between atoms: _320  and  _322
REMARK  128  A    between atoms: _322  and  _323
REMARK  129  A    between atoms: _322  and  _325
REMARK  130  A    between atoms: _325  and  _326
REMARK                            x       y       z     vdW  Elec       q    Type
REMARK                         _______ _______ _______ _____ _____    ______ ____
ROOT
ATOM      1  CA  ASP A   1      26.419  74.948  41.460  0.00  0.00    +0.144 C 
ENDROOT
BRANCH   1   2
ATOM      2  N   ASP A   1      26.745  74.801  42.872  0.00  0.00    -0.239 NA
ATOM      3  H   ASP A   1      26.166  74.183  43.476  0.00  0.00    +0.142 HD
ENDBRANCH   1   2
BRANCH   1   4
ATOM      4  C   ASP A   1      25.541  76.177  41.654  0.00  0.00    +0.225 C 
ATOM      5  O   ASP A   1      24.354  76.044  41.965  0.00  0.00    -0.287 OA
ENDBRANCH   1   4
BRANCH   1   6
ATOM      6  CB  ASP A   1      25.532  73.816  40.932  0.00  0.00    +0.139 C 
BRANCH   6   7
ATOM      7  CG  ASP A   1      26.323  72.624  40.441  0.00  0.00    +0.367 C 
ATOM      8  OD2 ASP A   1      25.737  71.522  40.345  0.00  0.00    -0.246 OA
ATOM      9  OD1 ASP A   1      27.520  72.791  40.136  0.00  0.00    -0.246 OA
ENDBRANCH   6   7
ENDBRANCH   1   6
TORSDOF 4
REMARK  Name = ../refined-set-2016/1j01/1j01_pocket.pdb
REMARK  130 active torsions:
REMARK  status: ('A' for Active; 'I' for Inactive)
REMARK    1  A    between atoms: _1  and  _3
REMARK    2  A    between atoms: _3  and  _4
REMARK    3  A    between atoms: _7  and  _9
REMARK    4  A    between atoms: _9  and  _10
REMARK    5  A    between atoms: _9  and  _12
REMARK    6  A    between atoms: _12  and  _13
REMARK    7  A    between atoms: _16  and  _18
REMARK    8  A    between atoms: _18  and  _19
REMARK    9  A    between atoms: _22  and  _24
REMARK   10  A    between atoms: _24  and  _25
REMARK   11  A    between atoms: _24  and  _27
REMARK   12  A    between atoms: _27  and  _28
REMARK   13  A    between atoms: _28  and  _29
REMARK   14  A    between atoms: _32  and  _34
REMARK   15  A    between atoms: _34  and  _35
REMARK   16  A    between atoms: _34  and  _37
REMARK   17  A    between atoms: _37  and  _38
REMARK   18  A    between atoms: _43  and  _45
REMARK   19  A    between atoms: _45  and  _46
REMARK   20  A    between atoms: _45  and  _48
REMARK   21  A    between atoms: _48  and  _49
REMARK   22  A    between atoms: _49  and  _50
REMARK   23  A    between atoms: _50  and  _51
REMARK   24  A    between atoms: _51  and  _52
REMARK   25  A    between atoms: _56  and  _58
REMARK   26  A    between atoms: _58  and  _59
REMARK   27  A    between atoms: _58  and  _61
REMARK   28  A    between atoms: _61  and  _62
REMARK   29  A    between atoms: _65  and  _67
REMARK   30  A    between atoms: _67  and  _68
REMARK   31  A    between atoms: _67  and  _70
REMARK   32  A    between atoms: _70  and  _71
REMARK   33  A    between atoms: _76  and  _78
REMARK   34  A    between atoms: _78  and  _79
REMARK   35  A    between atoms: _78  and  _81
REMARK   36  A    between atoms: _81  and  _82
REMARK   37  A    between atoms: _85  and  _87
REMARK   38  A    between atoms: _87  and  _88
REMARK   39  A    between atoms: _87  and  _90
REMARK   40  A    between atoms: _90  and  _91
REMARK   41  A    between atoms: _101  and  _103
REMARK   42  A    between atoms: _103  and  _104
REMARK   43  A    between atoms: _103  and  _106
REMARK   44  A    between atoms: _106  and  _107
REMARK   45  A    between atoms: _109  and  _111
REMARK   46  A    between atoms: _111  and  _112
REMARK   47  A    between atoms: _111  and  _114
REMARK   48  A    between atoms: _114  and  _115
REMARK   49  A    between atoms: _115  and  _116
REMARK   50  A    between atoms: _121  and  _123
REMARK   51  A    between atoms: _123  and  _124
REMARK   52  A    between atoms: _123  and  _126
REMARK   53  A    between atoms: _126  and  _127
REMARK   54  A    between atoms: _130  and  _132
REMARK   55  A    between atoms: _132  and  _133
REMARK   56  A    between atoms: _132  and  _135
REMARK   57  A    between atoms: _135  and  _136
REMARK   58  A    between atoms: _141  and  _143
REMARK   59  A    between atoms: _143  and  _144
REMARK   60  A    between atoms: _143  and  _146
REMARK   61  A    between atoms: _146  and  _147
REMARK   62  A    between atoms: _147  and  _148
REMARK   63  A    between atoms: _151  and  _153
REMARK   64  A    between atoms: _153  and  _154
REMARK   65  A    between atoms: _153  and  _156
REMARK   66  A    between atoms: _156  and  _157
REMARK   67  A    between atoms: _162  and  _164
REMARK   68  A    between atoms: _164  and  _165
REMARK   69  A    between atoms: _164  and  _167
REMARK   70  A    between atoms: _167  and  _168
REMARK   71  A    between atoms: _171  and  _173
REMARK   72  A    between atoms: _173  and  _174
REMARK   73  A    between atoms: _173  and  _176
REMARK   74  A    between atoms: _176  and  _177
REMARK   75  A    between atoms: _182  and  _183
REMARK   76  A    between atoms: _185  and  _187
REMARK   77  A    between atoms: _187  and  _188
REMARK   78  A    between atoms: _187  and  _190
REMARK   79  A    between atoms: _190  and  _191
REMARK   80  A    between atoms: _191  and  _192
REMARK   81  A    between atoms: _197  and  _199
REMARK   82  A    between atoms: _199  and  _200
REMARK   83  A    between atoms: _199  and  _202
REMARK   84  A    between atoms: _202  and  _203
REMARK   85  A    between atoms: _208  and  _210
REMARK   86  A    between atoms: _210  and  _211
REMARK   87  A    between atoms: _210  and  _213
REMARK   88  A    between atoms: _213  and  _214
REMARK   89  A    between atoms: _217  and  _219
REMARK   90  A    between atoms: _219  and  _220
REMARK   91  A    between atoms: _219  and  _222
REMARK   92  A    between atoms: _222  and  _223
REMARK   93  A    between atoms: _223  and  _224
REMARK   94  A    between atoms: _227  and  _229
REMARK   95  A    between atoms: _229  and  _230
REMARK   96  A    between atoms: _229  and  _232
REMARK   97  A    between atoms: _232  and  _233
REMARK   98  A    between atoms: _236  and  _238
REMARK   99  A    between atoms: _238  and  _239
REMARK  100  A    between atoms: _238  and  _241
REMARK  101  A    between atoms: _241  and  _242
REMARK  102  A    between atoms: _252  and  _254
REMARK  103  A    between atoms: _254  and  _255
REMARK  104  A    between atoms: _257  and  _259
REMARK  105  A    between atoms: _259  and  _260
REMARK  106  A    between atoms: _259  and  _262
REMARK  107  A    between atoms: _262  and  _263
REMARK  108  A    between atoms: _268  and  _269
REMARK  109  A    between atoms: _271  and  _273
REMARK  110  A    between atoms: _273  and  _274
REMARK  111  A    between atoms: _273  and  _276
REMARK  112  A    between atoms: _276  and  _277
REMARK  113  A    between atoms: _279  and  _281
REMARK  114  A    between atoms: _281  and  _282
REMARK  115  A    between atoms: _281  and  _284
REMARK  116  A    between atoms: _284  and  _285
REMARK  117  A    between atoms: _295  and  _297
REMARK  118  A    between atoms: _297  and  _298
REMARK  119  A    between atoms: _297  and  _300
REMARK  120  A    between atoms: _303  and  _305
REMARK  121  A    between atoms: _305  and  _306
REMARK  122  A    between atoms: _305  and  _308
REMARK  123  A    between atoms: _308  and  _309
REMARK  124  A    between atoms: _312  and  _314
REMARK  125  A    between atoms: _314  and  _315
REMARK  126  A    between atoms: _314  and  _317
REMARK  127  A    between atoms: _320  and  _322
REMARK  128  A    between atoms: _322  and  _323
REMARK  129  A    between atoms: _322  and  _325
REMARK  130  A    between atoms: _325  and  _326
REMARK                            x       y       z     vdW  Elec       q    Type
REMARK                         _______ _______ _______ _____ _____    ______ ____
ROOT
ATOM      1  C   ASN A   1      21.914  75.557  35.117  0.00  0.00    +0.239 C 
ATOM      2  O   ASN A   1      20.835  76.143  35.049  0.00  0.00    -0.274 OA
ATOM      3  N   GLU A   2      22.495  74.975  34.068  0.00  0.00    -0.298 N 
ATOM      4  H   GLU A   2      23.435  74.547  34.189  0.00  0.00    +0.150 HD
ENDROOT
BRANCH   1   5
ATOM      5  CA  ASN A   1      22.678  75.490  36.440  0.00  0.00    +0.154 C 
BRANCH   5   6
ATOM      6  N   ASN A   1      22.702  76.763  37.149  0.00  0.00    -0.238 NA
ATOM      7  H   ASN A   1      21.806  77.253  37.345  0.00  0.00    +0.142 HD
ENDBRANCH   5   6
BRANCH   5   8
ATOM      8  CB  ASN A   1      22.055  74.420  37.349  0.00  0.00    +0.111 C 
BRANCH   8   9
ATOM      9  CG  ASN A   1      22.165  73.020  36.771  0.00  0.00    +0.221 C 
ATOM     10  ND2 ASN A   1      21.128  72.209  36.968  0.00  0.00    -0.329 N 
ATOM     11 HD21 ASN A   1      20.292  72.550  37.484  0.00  0.00    +0.145 HD
ATOM     12 HD22 ASN A   1      21.154  71.235  36.606  0.00  0.00    +0.145 HD
ATOM     13  OD1 ASN A   1      23.176  72.670  36.169  0.00  0.00    -0.275 OA
ENDBRANCH   8   9
ENDBRANCH   5   8
ENDBRANCH   1   5
BRANCH   3  14
ATOM     14  CA  GLU A   2      21.857  74.916  32.751  0.00  0.00    +0.137 C 
BRANCH  14  15
ATOM     15  C   GLU A   2      21.392  76.255  32.176  0.00  0.00    +0.227 C 
ATOM     16  O   GLU A   2      20.232  76.405  31.784  0.00  0.00    -0.286 OA
ENDBRANCH  14  15
BRANCH  14  17
ATOM     17  CB  GLU A   2      20.676  73.942  32.815  0.00  0.00    +0.039 C 
BRANCH  17  18
ATOM     18  CG  GLU A   2      21.100  72.472  32.882  0.00  0.00    +0.116 C 
BRANCH  18  19
ATOM     19  CD  GLU A   2      19.954  71.535  33.210  0.00  0.00    +0.365 C 
ATOM     20  OE2 GLU A   2      20.226  70.413  33.688  0.00  0.00    -0.246 OA
ATOM     21  OE1 GLU A   2      18.784  71.914  32.983  0.00  0.00    -0.246 OA
ENDBRANCH  18  19
ENDBRANCH  17  18
ENDBRANCH  14  17
ENDBRANCH   3  14
TORSDOF 9
REMARK  Name = ../refined-set-2016/1j01/1j01_pocket.pdb
REMARK  130 active torsions:
REMARK  status: ('A' for Active; 'I' for Inactive)
REMARK    1  A    between atoms: _1  and  _3
REMARK    2  A    between atoms: _3  and  _4
REMARK    3  A    between atoms: _7  and  _9
REMARK    4  A    between atoms: _9  and  _10
REMARK    5  A    between atoms: _9  and  _12
REMARK    6  A    between atoms: _12  and  _13
REMARK    7  A    between atoms: _16  and  _18
REMARK    8  A    between atoms: _18  and  _19
REMARK    9  A    between atoms: _22  and  _24
REMARK   10  A    between atoms: _24  and  _25
REMARK   11  A    between atoms: _24  and  _27
REMARK   12  A    between atoms: _27  and  _28
REMARK   13  A    between atoms: _28  and  _29
REMARK   14  A    between atoms: _32  and  _34
REMARK   15  A    between atoms: _34  and  _35
REMARK   16  A    between atoms: _34  and  _37
REMARK   17  A    between atoms: _37  and  _38
REMARK   18  A    between atoms: _43  and  _45
REMARK   19  A    between atoms: _45  and  _46
REMARK   20  A    between atoms: _45  and  _48
REMARK   21  A    between atoms: _48  and  _49
REMARK   22  A    between atoms: _49  and  _50
REMARK   23  A    between atoms: _50  and  _51
REMARK   24  A    between atoms: _51  and  _52
REMARK   25  A    between atoms: _56  and  _58
REMARK   26  A    between atoms: _58  and  _59
REMARK   27  A    between atoms: _58  and  _61
REMARK   28  A    between atoms: _61  and  _62
REMARK   29  A    between atoms: _65  and  _67
REMARK   30  A    between atoms: _67  and  _68
REMARK   31  A    between atoms: _67  and  _70
REMARK   32  A    between atoms: _70  and  _71
REMARK   33  A    between atoms: _76  and  _78
REMARK   34  A    between atoms: _78  and  _79
REMARK   35  A    between atoms: _78  and  _81
REMARK   36  A    between atoms: _81  and  _82
REMARK   37  A    between atoms: _85  and  _87
REMARK   38  A    between atoms: _87  and  _88
REMARK   39  A    between atoms: _87  and  _90
REMARK   40  A    between atoms: _90  and  _91
REMARK   41  A    between atoms: _101  and  _103
REMARK   42  A    between atoms: _103  and  _104
REMARK   43  A    between atoms: _103  and  _106
REMARK   44  A    between atoms: _106  and  _107
REMARK   45  A    between atoms: _109  and  _111
REMARK   46  A    between atoms: _111  and  _112
REMARK   47  A    between atoms: _111  and  _114
REMARK   48  A    between atoms: _114  and  _115
REMARK   49  A    between atoms: _115  and  _116
REMARK   50  A    between atoms: _121  and  _123
REMARK   51  A    between atoms: _123  and  _124
REMARK   52  A    between atoms: _123  and  _126
REMARK   53  A    between atoms: _126  and  _127
REMARK   54  A    between atoms: _130  and  _132
REMARK   55  A    between atoms: _132  and  _133
REMARK   56  A    between atoms: _132  and  _135
REMARK   57  A    between atoms: _135  and  _136
REMARK   58  A    between atoms: _141  and  _143
REMARK   59  A    between atoms: _143  and  _144
REMARK   60  A    between atoms: _143  and  _146
REMARK   61  A    between atoms: _146  and  _147
REMARK   62  A    between atoms: _147  and  _148
REMARK   63  A    between atoms: _151  and  _153
REMARK   64  A    between atoms: _153  and  _154
REMARK   65  A    between atoms: _153  and  _156
REMARK   66  A    between atoms: _156  and  _157
REMARK   67  A    between atoms: _162  and  _164
REMARK   68  A    between atoms: _164  and  _165
REMARK   69  A    between atoms: _164  and  _167
REMARK   70  A    between atoms: _167  and  _168
REMARK   71  A    between atoms: _171  and  _173
REMARK   72  A    between atoms: _173  and  _174
REMARK   73  A    between atoms: _173  and  _176
REMARK   74  A    between atoms: _176  and  _177
REMARK   75  A    between atoms: _182  and  _183
REMARK   76  A    between atoms: _185  and  _187
REMARK   77  A    between atoms: _187  and  _188
REMARK   78  A    between atoms: _187  and  _190
REMARK   79  A    between atoms: _190  and  _191
REMARK   80  A    between atoms: _191  and  _192
REMARK   81  A    between atoms: _197  and  _199
REMARK   82  A    between atoms: _199  and  _200
REMARK   83  A    between atoms: _199  and  _202
REMARK   84  A    between atoms: _202  and  _203
REMARK   85  A    between atoms: _208  and  _210
REMARK   86  A    between atoms: _210  and  _211
REMARK   87  A    between atoms: _210  and  _213
REMARK   88  A    between atoms: _213  and  _214
REMARK   89  A    between atoms: _217  and  _219
REMARK   90  A    between atoms: _219  and  _220
REMARK   91  A    between atoms: _219  and  _222
REMARK   92  A    between atoms: _222  and  _223
REMARK   93  A    between atoms: _223  and  _224
REMARK   94  A    between atoms: _227  and  _229
REMARK   95  A    between atoms: _229  and  _230
REMARK   96  A    between atoms: _229  and  _232
REMARK   97  A    between atoms: _232  and  _233
REMARK   98  A    between atoms: _236  and  _238
REMARK   99  A    between atoms: _238  and  _239
REMARK  100  A    between atoms: _238  and  _241
REMARK  101  A    between atoms: _241  and  _242
REMARK  102  A    between atoms: _252  and  _254
REMARK  103  A    between atoms: _254  and  _255
REMARK  104  A    between atoms: _257  and  _259
REMARK  105  A    between atoms: _259  and  _260
REMARK  106  A    between atoms: _259  and  _262
REMARK  107  A    between atoms: _262  and  _263
REMARK  108  A    between atoms: _268  and  _269
REMARK  109  A    between atoms: _271  and  _273
REMARK  110  A    between atoms: _273  and  _274
REMARK  111  A    between atoms: _273  and  _276
REMARK  112  A    between atoms: _276  and  _277
REMARK  113  A    between atoms: _279  and  _281
REMARK  114  A    between atoms: _281  and  _282
REMARK  115  A    between atoms: _281  and  _284
REMARK  116  A    between atoms: _284  and  _285
REMARK  117  A    between atoms: _295  and  _297
REMARK  118  A    between atoms: _297  and  _298
REMARK  119  A    between atoms: _297  and  _300
REMARK  120  A    between atoms: _303  and  _305
REMARK  121  A    between atoms: _305  and  _306
REMARK  122  A    between atoms: _305  and  _308
REMARK  123  A    between atoms: _308  and  _309
REMARK  124  A    between atoms: _312  and  _314
REMARK  125  A    between atoms: _314  and  _315
REMARK  126  A    between atoms: _314  and  _317
REMARK  127  A    between atoms: _320  and  _322
REMARK  128  A    between atoms: _322  and  _323
REMARK  129  A    between atoms: _322  and  _325
REMARK  130  A    between atoms: _325  and  _326
REMARK                            x       y       z     vdW  Elec       q    Type
REMARK                         _______ _______ _______ _____ _____    ______ ____
ROOT
ATOM      1  CA  ASP A   2      25.557  72.463  32.484  0.00  0.00    +0.160 C 
ENDROOT
BRANCH   1   4
ATOM      2  C   ASN A   1      26.031  73.839  34.560  0.00  0.00    +0.239 C 
ATOM      3  O   ASN A   1      25.169  74.697  34.366  0.00  0.00    -0.274 OA
ATOM      4  N   ASP A   2      26.414  72.710  33.642  0.00  0.00    -0.297 N 
ATOM      5  H   ASP A   2      27.256  72.128  33.824  0.00  0.00    +0.150 HD
BRANCH   2   6
ATOM      6  CA  ASN A   1      26.925  73.891  35.803  0.00  0.00    +0.154 C 
BRANCH   6   7
ATOM      7  N   ASN A   1      27.081  75.262  36.291  0.00  0.00    -0.238 NA
ATOM      8  H   ASN A   1      26.252  75.823  36.575  0.00  0.00    +0.142 HD
ENDBRANCH   6   7
BRANCH   6   9
ATOM      9  CB  ASN A   1      26.212  73.130  37.084  0.00  0.00    +0.111 C 
BRANCH   9  10
ATOM     10  CG  ASN A   1      26.340  71.631  36.880  0.00  0.00    +0.221 C 
ATOM     11  ND2 ASN A   1      25.249  70.911  37.100  0.00  0.00    -0.329 N 
ATOM     12 HD21 ASN A   1      24.361  71.381  37.367  0.00  0.00    +0.145 HD
ATOM     13 HD22 ASN A   1      25.281  69.876  37.005  0.00  0.00    +0.145 HD
ATOM     14  OD1 ASN A   1      27.420  71.131  36.561  0.00  0.00    -0.275 OA
ENDBRANCH   9  10
ENDBRANCH   6   9
ENDBRANCH   2   6
ENDBRANCH   1   4
BRANCH   1  15
ATOM     15  C   ASP A   2      25.802  71.069  31.911  0.00  0.00    +0.241 C 
ATOM     16  O   ASP A   2      26.710  70.364  32.350  0.00  0.00    -0.273 OA
ATOM     17  N   TYR A   3      24.987  70.681  30.930  0.00  0.00    -0.298 N 
ATOM     18  H   TYR A   3      24.235  71.328  30.618  0.00  0.00    +0.150 HD
BRANCH  17  19
ATOM     19  CA  TYR A   3      25.112  69.376  30.276  0.00  0.00    +0.141 C 
BRANCH  19  20
ATOM     20  C   TYR A   3      25.310  69.578  28.776  0.00  0.00    +0.227 C 
ATOM     21  O   TYR A   3      24.998  70.644  28.240  0.00  0.00    -0.286 OA
ENDBRANCH  19  20
BRANCH  19  22
ATOM     22  CB  TYR A   3      23.860  68.526  30.534  0.00  0.00    +0.054 C 
BRANCH  22  23
ATOM     23  CG  TYR A   3      22.590  69.070  29.913  0.00  0.00    -0.020 A 
ATOM     24  CD2 TYR A   3      21.738  69.894  30.642  0.00  0.00    -0.001 A 
ATOM     25  CE2 TYR A   3      20.569  70.407  30.077  0.00  0.00    +0.036 A 
ATOM     26  CZ  TYR A   3      20.242  70.093  28.766  0.00  0.00    +0.134 A 
ATOM     27  CE1 TYR A   3      21.071  69.275  28.018  0.00  0.00    +0.036 A 
ATOM     28  CD1 TYR A   3      22.245  68.767  28.593  0.00  0.00    -0.001 A 
BRANCH  26  29
ATOM     29  OH  TYR A   3      19.081  70.589  28.216  0.00  0.00    -0.506 OA
ATOM     30  HH  TYR A   3      18.306  70.271  28.743  0.00  0.00    +0.292 HD
ENDBRANCH  26  29
ENDBRANCH  22  23
ENDBRANCH  19  22
ENDBRANCH  17  19
ENDBRANCH   1  15
BRANCH   1  31
ATOM     31  CB  ASP A   2      25.812  73.507  31.388  0.00  0.00    +0.143 C 
BRANCH  31  32
ATOM     32  CG  ASP A   2      24.536  73.933  30.691  0.00  0.00    +0.367 C 
ATOM     33  OD2 ASP A   2      24.365  75.147  30.450  0.00  0.00    -0.246 OA
ATOM     34  OD1 ASP A   2      23.702  73.051  30.379  0.00  0.00    -0.246 OA
ENDBRANCH  31  32
ENDBRANCH   1  31
TORSDOF 13
REMARK  Name = ../refined-set-2016/1j01/1j01_pocket.pdb
REMARK  130 active torsions:
REMARK  status: ('A' for Active; 'I' for Inactive)
REMARK    1  A    between atoms: _1  and  _3
REMARK    2  A    between atoms: _3  and  _4
REMARK    3  A    between atoms: _7  and  _9
REMARK    4  A    between atoms: _9  and  _10
REMARK    5  A    between atoms: _9  and  _12
REMARK    6  A    between atoms: _12  and  _13
REMARK    7  A    between atoms: _16  and  _18
REMARK    8  A    between atoms: _18  and  _19
REMARK    9  A    between atoms: _22  and  _24
REMARK   10  A    between atoms: _24  and  _25
REMARK   11  A    between atoms: _24  and  _27
REMARK   12  A    between atoms: _27  and  _28
REMARK   13  A    between atoms: _28  and  _29
REMARK   14  A    between atoms: _32  and  _34
REMARK   15  A    between atoms: _34  and  _35
REMARK   16  A    between atoms: _34  and  _37
REMARK   17  A    between atoms: _37  and  _38
REMARK   18  A    between atoms: _43  and  _45
REMARK   19  A    between atoms: _45  and  _46
REMARK   20  A    between atoms: _45  and  _48
REMARK   21  A    between atoms: _48  and  _49
REMARK   22  A    between atoms: _49  and  _50
REMARK   23  A    between atoms: _50  and  _51
REMARK   24  A    between atoms: _51  and  _52
REMARK   25  A    between atoms: _56  and  _58
REMARK   26  A    between atoms: _58  and  _59
REMARK   27  A    between atoms: _58  and  _61
REMARK   28  A    between atoms: _61  and  _62
REMARK   29  A    between atoms: _65  and  _67
REMARK   30  A    between atoms: _67  and  _68
REMARK   31  A    between atoms: _67  and  _70
REMARK   32  A    between atoms: _70  and  _71
REMARK   33  A    between atoms: _76  and  _78
REMARK   34  A    between atoms: _78  and  _79
REMARK   35  A    between atoms: _78  and  _81
REMARK   36  A    between atoms: _81  and  _82
REMARK   37  A    between atoms: _85  and  _87
REMARK   38  A    between atoms: _87  and  _88
REMARK   39  A    between atoms: _87  and  _90
REMARK   40  A    between atoms: _90  and  _91
REMARK   41  A    between atoms: _101  and  _103
REMARK   42  A    between atoms: _103  and  _104
REMARK   43  A    between atoms: _103  and  _106
REMARK   44  A    between atoms: _106  and  _107
REMARK   45  A    between atoms: _109  and  _111
REMARK   46  A    between atoms: _111  and  _112
REMARK   47  A    between atoms: _111  and  _114
REMARK   48  A    between atoms: _114  and  _115
REMARK   49  A    between atoms: _115  and  _116
REMARK   50  A    between atoms: _121  and  _123
REMARK   51  A    between atoms: _123  and  _124
REMARK   52  A    between atoms: _123  and  _126
REMARK   53  A    between atoms: _126  and  _127
REMARK   54  A    between atoms: _130  and  _132
REMARK   55  A    between atoms: _132  and  _133
REMARK   56  A    between atoms: _132  and  _135
REMARK   57  A    between atoms: _135  and  _136
REMARK   58  A    between atoms: _141  and  _143
REMARK   59  A    between atoms: _143  and  _144
REMARK   60  A    between atoms: _143  and  _146
REMARK   61  A    between atoms: _146  and  _147
REMARK   62  A    between atoms: _147  and  _148
REMARK   63  A    between atoms: _151  and  _153
REMARK   64  A    between atoms: _153  and  _154
REMARK   65  A    between atoms: _153  and  _156
REMARK   66  A    between atoms: _156  and  _157
REMARK   67  A    between atoms: _162  and  _164
REMARK   68  A    between atoms: _164  and  _165
REMARK   69  A    between atoms: _164  and  _167
REMARK   70  A    between atoms: _167  and  _168
REMARK   71  A    between atoms: _171  and  _173
REMARK   72  A    between atoms: _173  and  _174
REMARK   73  A    between atoms: _173  and  _176
REMARK   74  A    between atoms: _176  and  _177
REMARK   75  A    between atoms: _182  and  _183
REMARK   76  A    between atoms: _185  and  _187
REMARK   77  A    between atoms: _187  and  _188
REMARK   78  A    between atoms: _187  and  _190
REMARK   79  A    between atoms: _190  and  _191
REMARK   80  A    between atoms: _191  and  _192
REMARK   81  A    between atoms: _197  and  _199
REMARK   82  A    between atoms: _199  and  _200
REMARK   83  A    between atoms: _199  and  _202
REMARK   84  A    between atoms: _202  and  _203
REMARK   85  A    between atoms: _208  and  _210
REMARK   86  A    between atoms: _210  and  _211
REMARK   87  A    between atoms: _210  and  _213
REMARK   88  A    between atoms: _213  and  _214
REMARK   89  A    between atoms: _217  and  _219
REMARK   90  A    between atoms: _219  and  _220
REMARK   91  A    between atoms: _219  and  _222
REMARK   92  A    between atoms: _222  and  _223
REMARK   93  A    between atoms: _223  and  _224
REMARK   94  A    between atoms: _227  and  _229
REMARK   95  A    between atoms: _229  and  _230
REMARK   96  A    between atoms: _229  and  _232
REMARK   97  A    between atoms: _232  and  _233
REMARK   98  A    between atoms: _236  and  _238
REMARK   99  A    between atoms: _238  and  _239
REMARK  100  A    between atoms: _238  and  _241
REMARK  101  A    between atoms: _241  and  _242
REMARK  102  A    between atoms: _252  and  _254
REMARK  103  A    between atoms: _254  and  _255
REMARK  104  A    between atoms: _257  and  _259
REMARK  105  A    between atoms: _259  and  _260
REMARK  106  A    between atoms: _259  and  _262
REMARK  107  A    between atoms: _262  and  _263
REMARK  108  A    between atoms: _268  and  _269
REMARK  109  A    between atoms: _271  and  _273
REMARK  110  A    between atoms: _273  and  _274
REMARK  111  A    between atoms: _273  and  _276
REMARK  112  A    between atoms: _276  and  _277
REMARK  113  A    between atoms: _279  and  _281
REMARK  114  A    between atoms: _281  and  _282
REMARK  115  A    between atoms: _281  and  _284
REMARK  116  A    between atoms: _284  and  _285
REMARK  117  A    between atoms: _295  and  _297
REMARK  118  A    between atoms: _297  and  _298
REMARK  119  A    between atoms: _297  and  _300
REMARK  120  A    between atoms: _303  and  _305
REMARK  121  A    between atoms: _305  and  _306
REMARK  122  A    between atoms: _305  and  _308
REMARK  123  A    between atoms: _308  and  _309
REMARK  124  A    between atoms: _312  and  _314
REMARK  125  A    between atoms: _314  and  _315
REMARK  126  A    between atoms: _314  and  _317
REMARK  127  A    between atoms: _320  and  _322
REMARK  128  A    between atoms: _322  and  _323
REMARK  129  A    between atoms: _322  and  _325
REMARK  130  A    between atoms: _325  and  _326
REMARK                            x       y       z     vdW  Elec       q    Type
REMARK                         _______ _______ _______ _____ _____    ______ ____
ROOT
ATOM      1  CB  GLN A   1      25.579  67.576  33.904  0.00  0.00    +0.035 C 
ENDROOT
BRANCH   1   2
ATOM      2  CA  GLN A   1      26.993  67.211  34.357  0.00  0.00    +0.134 C 
BRANCH   2   3
ATOM      3  N   GLN A   1      27.941  68.240  33.935  0.00  0.00    -0.239 NA
ATOM      4  H   GLN A   1      27.583  69.141  33.560  0.00  0.00    +0.142 HD
ENDBRANCH   2   3
BRANCH   2   5
ATOM      5  C   GLN A   1      27.366  65.827  33.850  0.00  0.00    +0.224 C 
ATOM      6  O   GLN A   1      27.331  64.854  34.597  0.00  0.00    -0.287 OA
ENDBRANCH   2   5
ENDBRANCH   1   2
BRANCH   1   7
ATOM      7  CG  GLN A   1      24.949  68.689  34.731  0.00  0.00    +0.087 C 
BRANCH   7   8
ATOM      8  CD  GLN A   1      23.506  68.962  34.341  0.00  0.00    +0.219 C 
ATOM      9  NE2 GLN A   1      23.107  70.232  34.378  0.00  0.00    -0.329 N 
ATOM     10 HE21 GLN A   1      23.777  70.980  34.649  0.00  0.00    +0.145 HD
ATOM     11 HE22 GLN A   1      22.125  70.476  34.136  0.00  0.00    +0.145 HD
ATOM     12  OE1 GLN A   1      22.755  68.040  34.028  0.00  0.00    -0.275 OA
ENDBRANCH   7   8
ENDBRANCH   1   7
TORSDOF 5
REMARK  Name = ../refined-set-2016/1j01/1j01_pocket.pdb
REMARK  130 active torsions:
REMARK  status: ('A' for Active; 'I' for Inactive)
REMARK    1  A    between atoms: _1  and  _3
REMARK    2  A    between atoms: _3  and  _4
REMARK    3  A    between atoms: _7  and  _9
REMARK    4  A    between atoms: _9  and  _10
REMARK    5  A    between atoms: _9  and  _12
REMARK    6  A    between atoms: _12  and  _13
REMARK    7  A    between atoms: _16  and  _18
REMARK    8  A    between atoms: _18  and  _19
REMARK    9  A    between atoms: _22  and  _24
REMARK   10  A    between atoms: _24  and  _25
REMARK   11  A    between atoms: _24  and  _27
REMARK   12  A    between atoms: _27  and  _28
REMARK   13  A    between atoms: _28  and  _29
REMARK   14  A    between atoms: _32  and  _34
REMARK   15  A    between atoms: _34  and  _35
REMARK   16  A    between atoms: _34  and  _37
REMARK   17  A    between atoms: _37  and  _38
REMARK   18  A    between atoms: _43  and  _45
REMARK   19  A    between atoms: _45  and  _46
REMARK   20  A    between atoms: _45  and  _48
REMARK   21  A    between atoms: _48  and  _49
REMARK   22  A    between atoms: _49  and  _50
REMARK   23  A    between atoms: _50  and  _51
REMARK   24  A    between atoms: _51  and  _52
REMARK   25  A    between atoms: _56  and  _58
REMARK   26  A    between atoms: _58  and  _59
REMARK   27  A    between atoms: _58  and  _61
REMARK   28  A    between atoms: _61  and  _62
REMARK   29  A    between atoms: _65  and  _67
REMARK   30  A    between atoms: _67  and  _68
REMARK   31  A    between atoms: _67  and  _70
REMARK   32  A    between atoms: _70  and  _71
REMARK   33  A    between atoms: _76  and  _78
REMARK   34  A    between atoms: _78  and  _79
REMARK   35  A    between atoms: _78  and  _81
REMARK   36  A    between atoms: _81  and  _82
REMARK   37  A    between atoms: _85  and  _87
REMARK   38  A    between atoms: _87  and  _88
REMARK   39  A    between atoms: _87  and  _90
REMARK   40  A    between atoms: _90  and  _91
REMARK   41  A    between atoms: _101  and  _103
REMARK   42  A    between atoms: _103  and  _104
REMARK   43  A    between atoms: _103  and  _106
REMARK   44  A    between atoms: _106  and  _107
REMARK   45  A    between atoms: _109  and  _111
REMARK   46  A    between atoms: _111  and  _112
REMARK   47  A    between atoms: _111  and  _114
REMARK   48  A    between atoms: _114  and  _115
REMARK   49  A    between atoms: _115  and  _116
REMARK   50  A    between atoms: _121  and  _123
REMARK   51  A    between atoms: _123  and  _124
REMARK   52  A    between atoms: _123  and  _126
REMARK   53  A    between atoms: _126  and  _127
REMARK   54  A    between atoms: _130  and  _132
REMARK   55  A    between atoms: _132  and  _133
REMARK   56  A    between atoms: _132  and  _135
REMARK   57  A    between atoms: _135  and  _136
REMARK   58  A    between atoms: _141  and  _143
REMARK   59  A    between atoms: _143  and  _144
REMARK   60  A    between atoms: _143  and  _146
REMARK   61  A    between atoms: _146  and  _147
REMARK   62  A    between atoms: _147  and  _148
REMARK   63  A    between atoms: _151  and  _153
REMARK   64  A    between atoms: _153  and  _154
REMARK   65  A    between atoms: _153  and  _156
REMARK   66  A    between atoms: _156  and  _157
REMARK   67  A    between atoms: _162  and  _164
REMARK   68  A    between atoms: _164  and  _165
REMARK   69  A    between atoms: _164  and  _167
REMARK   70  A    between atoms: _167  and  _168
REMARK   71  A    between atoms: _171  and  _173
REMARK   72  A    between atoms: _173  and  _174
REMARK   73  A    between atoms: _173  and  _176
REMARK   74  A    between atoms: _176  and  _177
REMARK   75  A    between atoms: _182  and  _183
REMARK   76  A    between atoms: _185  and  _187
REMARK   77  A    between atoms: _187  and  _188
REMARK   78  A    between atoms: _187  and  _190
REMARK   79  A    between atoms: _190  and  _191
REMARK   80  A    between atoms: _191  and  _192
REMARK   81  A    between atoms: _197  and  _199
REMARK   82  A    between atoms: _199  and  _200
REMARK   83  A    between atoms: _199  and  _202
REMARK   84  A    between atoms: _202  and  _203
REMARK   85  A    between atoms: _208  and  _210
REMARK   86  A    between atoms: _210  and  _211
REMARK   87  A    between atoms: _210  and  _213
REMARK   88  A    between atoms: _213  and  _214
REMARK   89  A    between atoms: _217  and  _219
REMARK   90  A    between atoms: _219  and  _220
REMARK   91  A    between atoms: _219  and  _222
REMARK   92  A    between atoms: _222  and  _223
REMARK   93  A    between atoms: _223  and  _224
REMARK   94  A    between atoms: _227  and  _229
REMARK   95  A    between atoms: _229  and  _230
REMARK   96  A    between atoms: _229  and  _232
REMARK   97  A    between atoms: _232  and  _233
REMARK   98  A    between atoms: _236  and  _238
REMARK   99  A    between atoms: _238  and  _239
REMARK  100  A    between atoms: _238  and  _241
REMARK  101  A    between atoms: _241  and  _242
REMARK  102  A    between atoms: _252  and  _254
REMARK  103  A    between atoms: _254  and  _255
REMARK  104  A    between atoms: _257  and  _259
REMARK  105  A    between atoms: _259  and  _260
REMARK  106  A    between atoms: _259  and  _262
REMARK  107  A    between atoms: _262  and  _263
REMARK  108  A    between atoms: _268  and  _269
REMARK  109  A    between atoms: _271  and  _273
REMARK  110  A    between atoms: _273  and  _274
REMARK  111  A    between atoms: _273  and  _276
REMARK  112  A    between atoms: _276  and  _277
REMARK  113  A    between atoms: _279  and  _281
REMARK  114  A    between atoms: _281  and  _282
REMARK  115  A    between atoms: _281  and  _284
REMARK  116  A    between atoms: _284  and  _285
REMARK  117  A    between atoms: _295  and  _297
REMARK  118  A    between atoms: _297  and  _298
REMARK  119  A    between atoms: _297  and  _300
REMARK  120  A    between atoms: _303  and  _305
REMARK  121  A    between atoms: _305  and  _306
REMARK  122  A    between atoms: _305  and  _308
REMARK  123  A    between atoms: _308  and  _309
REMARK  124  A    between atoms: _312  and  _314
REMARK  125  A    between atoms: _314  and  _315
REMARK  126  A    between atoms: _314  and  _317
REMARK  127  A    between atoms: _320  and  _322
REMARK  128  A    between atoms: _322  and  _323
REMARK  129  A    between atoms: _322  and  _325
REMARK  130  A    between atoms: _325  and  _326
REMARK                            x       y       z     vdW  Elec       q    Type
REMARK                         _______ _______ _______ _____ _____    ______ ____
ROOT
ATOM      1  CB  HIS A   1      23.371  63.546  31.561  0.00  0.00    +0.072 C 
ENDROOT
BRANCH   1   2
ATOM      2  CG  HIS A   1      22.998  63.827  32.985  0.00  0.00    +0.082 A 
ATOM      3  ND1 HIS A   1      22.891  62.832  33.934  0.00  0.00    -0.227 NA
ATOM      4  CE1 HIS A   1      22.534  63.365  35.089  0.00  0.00    +0.199 A 
ATOM      5  NE2 HIS A   1      22.407  64.670  34.925  0.00  0.00    -0.221 NA
ATOM      6  CD2 HIS A   1      22.693  64.985  33.617  0.00  0.00    +0.115 A 
ENDBRANCH   1   2
BRANCH   1   7
ATOM      7  CA  HIS A   1      24.726  62.859  31.406  0.00  0.00    +0.139 C 
BRANCH   7   8
ATOM      8  N   HIS A   1      25.818  63.812  31.554  0.00  0.00    -0.239 NA
ATOM      9  H   HIS A   1      25.642  64.820  31.365  0.00  0.00    +0.142 HD
ENDBRANCH   7   8
BRANCH   7  10
ATOM     10  C   HIS A   1      24.930  62.411  29.968  0.00  0.00    +0.224 C 
ATOM     11  O   HIS A   1      24.437  63.039  29.034  0.00  0.00    -0.287 OA
ENDBRANCH   7  10
ENDBRANCH   1   7
TORSDOF 4
REMARK  Name = ../refined-set-2016/1j01/1j01_pocket.pdb
REMARK  130 active torsions:
REMARK  status: ('A' for Active; 'I' for Inactive)
REMARK    1  A    between atoms: _1  and  _3
REMARK    2  A    between atoms: _3  and  _4
REMARK    3  A    between atoms: _7  and  _9
REMARK    4  A    between atoms: _9  and  _10
REMARK    5  A    between atoms: _9  and  _12
REMARK    6  A    between atoms: _12  and  _13
REMARK    7  A    between atoms: _16  and  _18
REMARK    8  A    between atoms: _18  and  _19
REMARK    9  A    between atoms: _22  and  _24
REMARK   10  A    between atoms: _24  and  _25
REMARK   11  A    between atoms: _24  and  _27
REMARK   12  A    between atoms: _27  and  _28
REMARK   13  A    between atoms: _28  and  _29
REMARK   14  A    between atoms: _32  and  _34
REMARK   15  A    between atoms: _34  and  _35
REMARK   16  A    between atoms: _34  and  _37
REMARK   17  A    between atoms: _37  and  _38
REMARK   18  A    between atoms: _43  and  _45
REMARK   19  A    between atoms: _45  and  _46
REMARK   20  A    between atoms: _45  and  _48
REMARK   21  A    between atoms: _48  and  _49
REMARK   22  A    between atoms: _49  and  _50
REMARK   23  A    between atoms: _50  and  _51
REMARK   24  A    between atoms: _51  and  _52
REMARK   25  A    between atoms: _56  and  _58
REMARK   26  A    between atoms: _58  and  _59
REMARK   27  A    between atoms: _58  and  _61
REMARK   28  A    between atoms: _61  and  _62
REMARK   29  A    between atoms: _65  and  _67
REMARK   30  A    between atoms: _67  and  _68
REMARK   31  A    between atoms: _67  and  _70
REMARK   32  A    between atoms: _70  and  _71
REMARK   33  A    between atoms: _76  and  _78
REMARK   34  A    between atoms: _78  and  _79
REMARK   35  A    between atoms: _78  and  _81
REMARK   36  A    between atoms: _81  and  _82
REMARK   37  A    between atoms: _85  and  _87
REMARK   38  A    between atoms: _87  and  _88
REMARK   39  A    between atoms: _87  and  _90
REMARK   40  A    between atoms: _90  and  _91
REMARK   41  A    between atoms: _101  and  _103
REMARK   42  A    between atoms: _103  and  _104
REMARK   43  A    between atoms: _103  and  _106
REMARK   44  A    between atoms: _106  and  _107
REMARK   45  A    between atoms: _109  and  _111
REMARK   46  A    between atoms: _111  and  _112
REMARK   47  A    between atoms: _111  and  _114
REMARK   48  A    between atoms: _114  and  _115
REMARK   49  A    between atoms: _115  and  _116
REMARK   50  A    between atoms: _121  and  _123
REMARK   51  A    between atoms: _123  and  _124
REMARK   52  A    between atoms: _123  and  _126
REMARK   53  A    between atoms: _126  and  _127
REMARK   54  A    between atoms: _130  and  _132
REMARK   55  A    between atoms: _132  and  _133
REMARK   56  A    between atoms: _132  and  _135
REMARK   57  A    between atoms: _135  and  _136
REMARK   58  A    between atoms: _141  and  _143
REMARK   59  A    between atoms: _143  and  _144
REMARK   60  A    between atoms: _143  and  _146
REMARK   61  A    between atoms: _146  and  _147
REMARK   62  A    between atoms: _147  and  _148
REMARK   63  A    between atoms: _151  and  _153
REMARK   64  A    between atoms: _153  and  _154
REMARK   65  A    between atoms: _153  and  _156
REMARK   66  A    between atoms: _156  and  _157
REMARK   67  A    between atoms: _162  and  _164
REMARK   68  A    between atoms: _164  and  _165
REMARK   69  A    between atoms: _164  and  _167
REMARK   70  A    between atoms: _167  and  _168
REMARK   71  A    between atoms: _171  and  _173
REMARK   72  A    between atoms: _173  and  _174
REMARK   73  A    between atoms: _173  and  _176
REMARK   74  A    between atoms: _176  and  _177
REMARK   75  A    between atoms: _182  and  _183
REMARK   76  A    between atoms: _185  and  _187
REMARK   77  A    between atoms: _187  and  _188
REMARK   78  A    between atoms: _187  and  _190
REMARK   79  A    between atoms: _190  and  _191
REMARK   80  A    between atoms: _191  and  _192
REMARK   81  A    between atoms: _197  and  _199
REMARK   82  A    between atoms: _199  and  _200
REMARK   83  A    between atoms: _199  and  _202
REMARK   84  A    between atoms: _202  and  _203
REMARK   85  A    between atoms: _208  and  _210
REMARK   86  A    between atoms: _210  and  _211
REMARK   87  A    between atoms: _210  and  _213
REMARK   88  A    between atoms: _213  and  _214
REMARK   89  A    between atoms: _217  and  _219
REMARK   90  A    between atoms: _219  and  _220
REMARK   91  A    between atoms: _219  and  _222
REMARK   92  A    between atoms: _222  and  _223
REMARK   93  A    between atoms: _223  and  _224
REMARK   94  A    between atoms: _227  and  _229
REMARK   95  A    between atoms: _229  and  _230
REMARK   96  A    between atoms: _229  and  _232
REMARK   97  A    between atoms: _232  and  _233
REMARK   98  A    between atoms: _236  and  _238
REMARK   99  A    between atoms: _238  and  _239
REMARK  100  A    between atoms: _238  and  _241
REMARK  101  A    between atoms: _241  and  _242
REMARK  102  A    between atoms: _252  and  _254
REMARK  103  A    between atoms: _254  and  _255
REMARK  104  A    between atoms: _257  and  _259
REMARK  105  A    between atoms: _259  and  _260
REMARK  106  A    between atoms: _259  and  _262
REMARK  107  A    between atoms: _262  and  _263
REMARK  108  A    between atoms: _268  and  _269
REMARK  109  A    between atoms: _271  and  _273
REMARK  110  A    between atoms: _273  and  _274
REMARK  111  A    between atoms: _273  and  _276
REMARK  112  A    between atoms: _276  and  _277
REMARK  113  A    between atoms: _279  and  _281
REMARK  114  A    between atoms: _281  and  _282
REMARK  115  A    between atoms: _281  and  _284
REMARK  116  A    between atoms: _284  and  _285
REMARK  117  A    between atoms: _295  and  _297
REMARK  118  A    between atoms: _297  and  _298
REMARK  119  A    between atoms: _297  and  _300
REMARK  120  A    between atoms: _303  and  _305
REMARK  121  A    between atoms: _305  and  _306
REMARK  122  A    between atoms: _305  and  _308
REMARK  123  A    between atoms: _308  and  _309
REMARK  124  A    between atoms: _312  and  _314
REMARK  125  A    between atoms: _314  and  _315
REMARK  126  A    between atoms: _314  and  _317
REMARK  127  A    between atoms: _320  and  _322
REMARK  128  A    between atoms: _322  and  _323
REMARK  129  A    between atoms: _322  and  _325
REMARK  130  A    between atoms: _325  and  _326
REMARK                            x       y       z     vdW  Elec       q    Type
REMARK                         _______ _______ _______ _____ _____    ______ ____
ROOT
ATOM      1  C   THR A   1      27.867  65.613  38.553  0.00  0.00    +0.241 C 
ATOM      2  O   THR A   1      27.289  65.404  39.614  0.00  0.00    -0.274 OA
ATOM      3  N   GLU A   2      27.437  65.097  37.407  0.00  0.00    -0.298 N 
ATOM      4  H   GLU A   2      27.953  65.282  36.523  0.00  0.00    +0.150 HD
ENDROOT
BRANCH   1   5
ATOM      5  CA  THR A   1      29.104  66.512  38.534  0.00  0.00    +0.172 C 
BRANCH   5   6
ATOM      6  N   THR A   1      30.059  66.469  37.433  0.00  0.00    -0.236 NA
ATOM      7  H   THR A   1      29.809  66.907  36.524  0.00  0.00    +0.142 HD
ENDBRANCH   5   6
BRANCH   5   8
ATOM      8  CB  THR A   1      28.609  67.956  38.717  0.00  0.00    +0.135 C 
ATOM      9  CG2 THR A   1      29.772  68.888  39.004  0.00  0.00    +0.034 C 
BRANCH   8  10
ATOM     10  OG1 THR A   1      27.963  68.380  37.512  0.00  0.00    -0.383 OA
ATOM     11  HG1 THR A   1      27.641  69.310  37.621  0.00  0.00    +0.210 HD
ENDBRANCH   8  10
ENDBRANCH   5   8
ENDBRANCH   1   5
BRANCH   3  12
ATOM     12  CA  GLU A   2      26.233  64.266  37.397  0.00  0.00    +0.137 C 
BRANCH  12  13
ATOM     13  C   GLU A   2      26.368  63.113  36.415  0.00  0.00    +0.227 C 
ATOM     14  O   GLU A   2      25.455  62.825  35.638  0.00  0.00    -0.286 OA
ENDBRANCH  12  13
BRANCH  12  15
ATOM     15  CB  GLU A   2      25.027  65.131  37.032  0.00  0.00    +0.039 C 
BRANCH  15  16
ATOM     16  CG  GLU A   2      24.861  66.360  37.931  0.00  0.00    +0.116 C 
BRANCH  16  17
ATOM     17  CD  GLU A   2      23.618  67.150  37.599  0.00  0.00    +0.365 C 
ATOM     18  OE2 GLU A   2      23.551  68.351  37.959  0.00  0.00    -0.246 OA
ATOM     19  OE1 GLU A   2      22.699  66.559  36.985  0.00  0.00    -0.246 OA
ENDBRANCH  16  17
ENDBRANCH  15  16
ENDBRANCH  12  15
ENDBRANCH   3  12
TORSDOF 9
REMARK  Name = ../refined-set-2016/1j01/1j01_pocket.pdb
REMARK  130 active torsions:
REMARK  status: ('A' for Active; 'I' for Inactive)
REMARK    1  A    between atoms: _1  and  _3
REMARK    2  A    between atoms: _3  and  _4
REMARK    3  A    between atoms: _7  and  _9
REMARK    4  A    between atoms: _9  and  _10
REMARK    5  A    between atoms: _9  and  _12
REMARK    6  A    between atoms: _12  and  _13
REMARK    7  A    between atoms: _16  and  _18
REMARK    8  A    between atoms: _18  and  _19
REMARK    9  A    between atoms: _22  and  _24
REMARK   10  A    between atoms: _24  and  _25
REMARK   11  A    between atoms: _24  and  _27
REMARK   12  A    between atoms: _27  and  _28
REMARK   13  A    between atoms: _28  and  _29
REMARK   14  A    between atoms: _32  and  _34
REMARK   15  A    between atoms: _34  and  _35
REMARK   16  A    between atoms: _34  and  _37
REMARK   17  A    between atoms: _37  and  _38
REMARK   18  A    between atoms: _43  and  _45
REMARK   19  A    between atoms: _45  and  _46
REMARK   20  A    between atoms: _45  and  _48
REMARK   21  A    between atoms: _48  and  _49
REMARK   22  A    between atoms: _49  and  _50
REMARK   23  A    between atoms: _50  and  _51
REMARK   24  A    between atoms: _51  and  _52
REMARK   25  A    between atoms: _56  and  _58
REMARK   26  A    between atoms: _58  and  _59
REMARK   27  A    between atoms: _58  and  _61
REMARK   28  A    between atoms: _61  and  _62
REMARK   29  A    between atoms: _65  and  _67
REMARK   30  A    between atoms: _67  and  _68
REMARK   31  A    between atoms: _67  and  _70
REMARK   32  A    between atoms: _70  and  _71
REMARK   33  A    between atoms: _76  and  _78
REMARK   34  A    between atoms: _78  and  _79
REMARK   35  A    between atoms: _78  and  _81
REMARK   36  A    between atoms: _81  and  _82
REMARK   37  A    between atoms: _85  and  _87
REMARK   38  A    between atoms: _87  and  _88
REMARK   39  A    between atoms: _87  and  _90
REMARK   40  A    between atoms: _90  and  _91
REMARK   41  A    between atoms: _101  and  _103
REMARK   42  A    between atoms: _103  and  _104
REMARK   43  A    between atoms: _103  and  _106
REMARK   44  A    between atoms: _106  and  _107
REMARK   45  A    between atoms: _109  and  _111
REMARK   46  A    between atoms: _111  and  _112
REMARK   47  A    between atoms: _111  and  _114
REMARK   48  A    between atoms: _114  and  _115
REMARK   49  A    between atoms: _115  and  _116
REMARK   50  A    between atoms: _121  and  _123
REMARK   51  A    between atoms: _123  and  _124
REMARK   52  A    between atoms: _123  and  _126
REMARK   53  A    between atoms: _126  and  _127
REMARK   54  A    between atoms: _130  and  _132
REMARK   55  A    between atoms: _132  and  _133
REMARK   56  A    between atoms: _132  and  _135
REMARK   57  A    between atoms: _135  and  _136
REMARK   58  A    between atoms: _141  and  _143
REMARK   59  A    between atoms: _143  and  _144
REMARK   60  A    between atoms: _143  and  _146
REMARK   61  A    between atoms: _146  and  _147
REMARK   62  A    between atoms: _147  and  _148
REMARK   63  A    between atoms: _151  and  _153
REMARK   64  A    between atoms: _153  and  _154
REMARK   65  A    between atoms: _153  and  _156
REMARK   66  A    between atoms: _156  and  _157
REMARK   67  A    between atoms: _162  and  _164
REMARK   68  A    between atoms: _164  and  _165
REMARK   69  A    between atoms: _164  and  _167
REMARK   70  A    between atoms: _167  and  _168
REMARK   71  A    between atoms: _171  and  _173
REMARK   72  A    between atoms: _173  and  _174
REMARK   73  A    between atoms: _173  and  _176
REMARK   74  A    between atoms: _176  and  _177
REMARK   75  A    between atoms: _182  and  _183
REMARK   76  A    between atoms: _185  and  _187
REMARK   77  A    between atoms: _187  and  _188
REMARK   78  A    between atoms: _187  and  _190
REMARK   79  A    between atoms: _190  and  _191
REMARK   80  A    between atoms: _191  and  _192
REMARK   81  A    between atoms: _197  and  _199
REMARK   82  A    between atoms: _199  and  _200
REMARK   83  A    between atoms: _199  and  _202
REMARK   84  A    between atoms: _202  and  _203
REMARK   85  A    between atoms: _208  and  _210
REMARK   86  A    between atoms: _210  and  _211
REMARK   87  A    between atoms: _210  and  _213
REMARK   88  A    between atoms: _213  and  _214
REMARK   89  A    between atoms: _217  and  _219
REMARK   90  A    between atoms: _219  and  _220
REMARK   91  A    between atoms: _219  and  _222
REMARK   92  A    between atoms: _222  and  _223
REMARK   93  A    between atoms: _223  and  _224
REMARK   94  A    between atoms: _227  and  _229
REMARK   95  A    between atoms: _229  and  _230
REMARK   96  A    between atoms: _229  and  _232
REMARK   97  A    between atoms: _232  and  _233
REMARK   98  A    between atoms: _236  and  _238
REMARK   99  A    between atoms: _238  and  _239
REMARK  100  A    between atoms: _238  and  _241
REMARK  101  A    between atoms: _241  and  _242
REMARK  102  A    between atoms: _252  and  _254
REMARK  103  A    between atoms: _254  and  _255
REMARK  104  A    between atoms: _257  and  _259
REMARK  105  A    between atoms: _259  and  _260
REMARK  106  A    between atoms: _259  and  _262
REMARK  107  A    between atoms: _262  and  _263
REMARK  108  A    between atoms: _268  and  _269
REMARK  109  A    between atoms: _271  and  _273
REMARK  110  A    between atoms: _273  and  _274
REMARK  111  A    between atoms: _273  and  _276
REMARK  112  A    between atoms: _276  and  _277
REMARK  113  A    between atoms: _279  and  _281
REMARK  114  A    between atoms: _281  and  _282
REMARK  115  A    between atoms: _281  and  _284
REMARK  116  A    between atoms: _284  and  _285
REMARK  117  A    between atoms: _295  and  _297
REMARK  118  A    between atoms: _297  and  _298
REMARK  119  A    between atoms: _297  and  _300
REMARK  120  A    between atoms: _303  and  _305
REMARK  121  A    between atoms: _305  and  _306
REMARK  122  A    between atoms: _305  and  _308
REMARK  123  A    between atoms: _308  and  _309
REMARK  124  A    between atoms: _312  and  _314
REMARK  125  A    between atoms: _314  and  _315
REMARK  126  A    between atoms: _314  and  _317
REMARK  127  A    between atoms: _320  and  _322
REMARK  128  A    between atoms: _322  and  _323
REMARK  129  A    between atoms: _322  and  _325
REMARK  130  A    between atoms: _325  and  _326
REMARK                            x       y       z     vdW  Elec       q    Type
REMARK                         _______ _______ _______ _____ _____    ______ ____
ROOT
ATOM      1  CA  ASP A   1      25.610  58.550  34.261  0.00  0.00    +0.144 C 
ENDROOT
BRANCH   1   2
ATOM      2  N   ASP A   1      26.413  59.750  34.458  0.00  0.00    -0.239 NA
ATOM      3  H   ASP A   1      26.611  60.347  33.630  0.00  0.00    +0.142 HD
ENDBRANCH   1   2
BRANCH   1   4
ATOM      4  C   ASP A   1      25.584  58.349  32.751  0.00  0.00    +0.225 C 
ATOM      5  O   ASP A   1      25.539  59.314  31.984  0.00  0.00    -0.287 OA
ENDBRANCH   1   4
BRANCH   1   6
ATOM      6  CB  ASP A   1      24.205  58.639  34.903  0.00  0.00    +0.139 C 
BRANCH   6   7
ATOM      7  CG  ASP A   1      23.351  59.770  34.371  0.00  0.00    +0.367 C 
ATOM      8  OD2 ASP A   1      22.332  60.078  35.033  0.00  0.00    -0.246 OA
ATOM      9  OD1 ASP A   1      23.664  60.340  33.312  0.00  0.00    -0.246 OA
ENDBRANCH   6   7
ENDBRANCH   1   6
TORSDOF 4
REMARK  Name = ../refined-set-2016/1j01/1j01_pocket.pdb
REMARK  130 active torsions:
REMARK  status: ('A' for Active; 'I' for Inactive)
REMARK    1  A    between atoms: _1  and  _3
REMARK    2  A    between atoms: _3  and  _4
REMARK    3  A    between atoms: _7  and  _9
REMARK    4  A    between atoms: _9  and  _10
REMARK    5  A    between atoms: _9  and  _12
REMARK    6  A    between atoms: _12  and  _13
REMARK    7  A    between atoms: _16  and  _18
REMARK    8  A    between atoms: _18  and  _19
REMARK    9  A    between atoms: _22  and  _24
REMARK   10  A    between atoms: _24  and  _25
REMARK   11  A    between atoms: _24  and  _27
REMARK   12  A    between atoms: _27  and  _28
REMARK   13  A    between atoms: _28  and  _29
REMARK   14  A    between atoms: _32  and  _34
REMARK   15  A    between atoms: _34  and  _35
REMARK   16  A    between atoms: _34  and  _37
REMARK   17  A    between atoms: _37  and  _38
REMARK   18  A    between atoms: _43  and  _45
REMARK   19  A    between atoms: _45  and  _46
REMARK   20  A    between atoms: _45  and  _48
REMARK   21  A    between atoms: _48  and  _49
REMARK   22  A    between atoms: _49  and  _50
REMARK   23  A    between atoms: _50  and  _51
REMARK   24  A    between atoms: _51  and  _52
REMARK   25  A    between atoms: _56  and  _58
REMARK   26  A    between atoms: _58  and  _59
REMARK   27  A    between atoms: _58  and  _61
REMARK   28  A    between atoms: _61  and  _62
REMARK   29  A    between atoms: _65  and  _67
REMARK   30  A    between atoms: _67  and  _68
REMARK   31  A    between atoms: _67  and  _70
REMARK   32  A    between atoms: _70  and  _71
REMARK   33  A    between atoms: _76  and  _78
REMARK   34  A    between atoms: _78  and  _79
REMARK   35  A    between atoms: _78  and  _81
REMARK   36  A    between atoms: _81  and  _82
REMARK   37  A    between atoms: _85  and  _87
REMARK   38  A    between atoms: _87  and  _88
REMARK   39  A    between atoms: _87  and  _90
REMARK   40  A    between atoms: _90  and  _91
REMARK   41  A    between atoms: _101  and  _103
REMARK   42  A    between atoms: _103  and  _104
REMARK   43  A    between atoms: _103  and  _106
REMARK   44  A    between atoms: _106  and  _107
REMARK   45  A    between atoms: _109  and  _111
REMARK   46  A    between atoms: _111  and  _112
REMARK   47  A    between atoms: _111  and  _114
REMARK   48  A    between atoms: _114  and  _115
REMARK   49  A    between atoms: _115  and  _116
REMARK   50  A    between atoms: _121  and  _123
REMARK   51  A    between atoms: _123  and  _124
REMARK   52  A    between atoms: _123  and  _126
REMARK   53  A    between atoms: _126  and  _127
REMARK   54  A    between atoms: _130  and  _132
REMARK   55  A    between atoms: _132  and  _133
REMARK   56  A    between atoms: _132  and  _135
REMARK   57  A    between atoms: _135  and  _136
REMARK   58  A    between atoms: _141  and  _143
REMARK   59  A    between atoms: _143  and  _144
REMARK   60  A    between atoms: _143  and  _146
REMARK   61  A    between atoms: _146  and  _147
REMARK   62  A    between atoms: _147  and  _148
REMARK   63  A    between atoms: _151  and  _153
REMARK   64  A    between atoms: _153  and  _154
REMARK   65  A    between atoms: _153  and  _156
REMARK   66  A    between atoms: _156  and  _157
REMARK   67  A    between atoms: _162  and  _164
REMARK   68  A    between atoms: _164  and  _165
REMARK   69  A    between atoms: _164  and  _167
REMARK   70  A    between atoms: _167  and  _168
REMARK   71  A    between atoms: _171  and  _173
REMARK   72  A    between atoms: _173  and  _174
REMARK   73  A    between atoms: _173  and  _176
REMARK   74  A    between atoms: _176  and  _177
REMARK   75  A    between atoms: _182  and  _183
REMARK   76  A    between atoms: _185  and  _187
REMARK   77  A    between atoms: _187  and  _188
REMARK   78  A    between atoms: _187  and  _190
REMARK   79  A    between atoms: _190  and  _191
REMARK   80  A    between atoms: _191  and  _192
REMARK   81  A    between atoms: _197  and  _199
REMARK   82  A    between atoms: _199  and  _200
REMARK   83  A    between atoms: _199  and  _202
REMARK   84  A    between atoms: _202  and  _203
REMARK   85  A    between atoms: _208  and  _210
REMARK   86  A    between atoms: _210  and  _211
REMARK   87  A    between atoms: _210  and  _213
REMARK   88  A    between atoms: _213  and  _214
REMARK   89  A    between atoms: _217  and  _219
REMARK   90  A    between atoms: _219  and  _220
REMARK   91  A    between atoms: _219  and  _222
REMARK   92  A    between atoms: _222  and  _223
REMARK   93  A    between atoms: _223  and  _224
REMARK   94  A    between atoms: _227  and  _229
REMARK   95  A    between atoms: _229  and  _230
REMARK   96  A    between atoms: _229  and  _232
REMARK   97  A    between atoms: _232  and  _233
REMARK   98  A    between atoms: _236  and  _238
REMARK   99  A    between atoms: _238  and  _239
REMARK  100  A    between atoms: _238  and  _241
REMARK  101  A    between atoms: _241  and  _242
REMARK  102  A    between atoms: _252  and  _254
REMARK  103  A    between atoms: _254  and  _255
REMARK  104  A    between atoms: _257  and  _259
REMARK  105  A    between atoms: _259  and  _260
REMARK  106  A    between atoms: _259  and  _262
REMARK  107  A    between atoms: _262  and  _263
REMARK  108  A    between atoms: _268  and  _269
REMARK  109  A    between atoms: _271  and  _273
REMARK  110  A    between atoms: _273  and  _274
REMARK  111  A    between atoms: _273  and  _276
REMARK  112  A    between atoms: _276  and  _277
REMARK  113  A    between atoms: _279  and  _281
REMARK  114  A    between atoms: _281  and  _282
REMARK  115  A    between atoms: _281  and  _284
REMARK  116  A    between atoms: _284  and  _285
REMARK  117  A    between atoms: _295  and  _297
REMARK  118  A    between atoms: _297  and  _298
REMARK  119  A    between atoms: _297  and  _300
REMARK  120  A    between atoms: _303  and  _305
REMARK  121  A    between atoms: _305  and  _306
REMARK  122  A    between atoms: _305  and  _308
REMARK  123  A    between atoms: _308  and  _309
REMARK  124  A    between atoms: _312  and  _314
REMARK  125  A    between atoms: _314  and  _315
REMARK  126  A    between atoms: _314  and  _317
REMARK  127  A    between atoms: _320  and  _322
REMARK  128  A    between atoms: _322  and  _323
REMARK  129  A    between atoms: _322  and  _325
REMARK  130  A    between atoms: _325  and  _326
REMARK                            x       y       z     vdW  Elec       q    Type
REMARK                         _______ _______ _______ _____ _____    ______ ____
ROOT
ATOM      1  CB  TRP A   1      23.414  61.572  38.492  0.00  0.00    +0.054 C 
ENDROOT
BRANCH   1   2
ATOM      2  CG  TRP A   1      22.387  62.573  38.932  0.00  0.00    -0.002 A 
ATOM      3  CD2 TRP A   1      22.610  63.726  39.756  0.00  0.00    +0.013 A 
ATOM      4  CE3 TRP A   1      23.743  64.283  40.362  0.00  0.00    +0.001 A 
ATOM      5  CZ3 TRP A   1      23.595  65.447  41.119  0.00  0.00    +0.000 A 
ATOM      6  CH2 TRP A   1      22.343  66.053  41.273  0.00  0.00    +0.001 A 
ATOM      7  CZ2 TRP A   1      21.216  65.529  40.690  0.00  0.00    +0.017 A 
ATOM      8  CE2 TRP A   1      21.363  64.362  39.930  0.00  0.00    +0.056 A 
ATOM      9  NE1 TRP A   1      20.430  63.630  39.246  0.00  0.00    -0.352 N 
ATOM     10  HE1 TRP A   1      19.415  63.849  39.187  0.00  0.00    +0.166 HD
ATOM     11  CD1 TRP A   1      21.053  62.558  38.649  0.00  0.00    +0.068 A 
ENDBRANCH   1   2
BRANCH   1  12
ATOM     12  CA  TRP A   1      24.147  60.913  39.665  0.00  0.00    +0.149 C 
BRANCH  12  13
ATOM     13  C   TRP A   1      23.313  59.766  40.230  0.00  0.00    +0.239 C 
ATOM     14  N   GLY A   2      23.761  59.236  41.362  0.00  0.00    -0.297 N 
ATOM     15  H   GLY A   2      24.630  59.610  41.793  0.00  0.00    +0.150 HD
ATOM     16  O   TRP A   1      22.286  59.384  39.670  0.00  0.00    -0.274 OA
BRANCH  14  17
ATOM     17  CA  GLY A   2      23.060  58.146  42.007  0.00  0.00    +0.163 C 
BRANCH  17  18
ATOM     18  C   GLY A   2      23.975  56.957  42.204  0.00  0.00    +0.229 C 
ATOM     19  O   GLY A   2      25.104  56.943  41.713  0.00  0.00    -0.286 OA
ENDBRANCH  17  18
ENDBRANCH  14  17
ENDBRANCH  12  13
BRANCH  12  20
ATOM     20  N   TRP A   1      25.492  60.529  39.257  0.00  0.00    -0.238 NA
ATOM     21  H   TRP A   1      25.698  60.382  38.248  0.00  0.00    +0.142 HD
ENDBRANCH  12  20
ENDBRANCH   1  12
TORSDOF 6
REMARK  Name = ../refined-set-2016/1j01/1j01_pocket.pdb
REMARK  130 active torsions:
REMARK  status: ('A' for Active; 'I' for Inactive)
REMARK    1  A    between atoms: _1  and  _3
REMARK    2  A    between atoms: _3  and  _4
REMARK    3  A    between atoms: _7  and  _9
REMARK    4  A    between atoms: _9  and  _10
REMARK    5  A    between atoms: _9  and  _12
REMARK    6  A    between atoms: _12  and  _13
REMARK    7  A    between atoms: _16  and  _18
REMARK    8  A    between atoms: _18  and  _19
REMARK    9  A    between atoms: _22  and  _24
REMARK   10  A    between atoms: _24  and  _25
REMARK   11  A    between atoms: _24  and  _27
REMARK   12  A    between atoms: _27  and  _28
REMARK   13  A    between atoms: _28  and  _29
REMARK   14  A    between atoms: _32  and  _34
REMARK   15  A    between atoms: _34  and  _35
REMARK   16  A    between atoms: _34  and  _37
REMARK   17  A    between atoms: _37  and  _38
REMARK   18  A    between atoms: _43  and  _45
REMARK   19  A    between atoms: _45  and  _46
REMARK   20  A    between atoms: _45  and  _48
REMARK   21  A    between atoms: _48  and  _49
REMARK   22  A    between atoms: _49  and  _50
REMARK   23  A    between atoms: _50  and  _51
REMARK   24  A    between atoms: _51  and  _52
REMARK   25  A    between atoms: _56  and  _58
REMARK   26  A    between atoms: _58  and  _59
REMARK   27  A    between atoms: _58  and  _61
REMARK   28  A    between atoms: _61  and  _62
REMARK   29  A    between atoms: _65  and  _67
REMARK   30  A    between atoms: _67  and  _68
REMARK   31  A    between atoms: _67  and  _70
REMARK   32  A    between atoms: _70  and  _71
REMARK   33  A    between atoms: _76  and  _78
REMARK   34  A    between atoms: _78  and  _79
REMARK   35  A    between atoms: _78  and  _81
REMARK   36  A    between atoms: _81  and  _82
REMARK   37  A    between atoms: _85  and  _87
REMARK   38  A    between atoms: _87  and  _88
REMARK   39  A    between atoms: _87  and  _90
REMARK   40  A    between atoms: _90  and  _91
REMARK   41  A    between atoms: _101  and  _103
REMARK   42  A    between atoms: _103  and  _104
REMARK   43  A    between atoms: _103  and  _106
REMARK   44  A    between atoms: _106  and  _107
REMARK   45  A    between atoms: _109  and  _111
REMARK   46  A    between atoms: _111  and  _112
REMARK   47  A    between atoms: _111  and  _114
REMARK   48  A    between atoms: _114  and  _115
REMARK   49  A    between atoms: _115  and  _116
REMARK   50  A    between atoms: _121  and  _123
REMARK   51  A    between atoms: _123  and  _124
REMARK   52  A    between atoms: _123  and  _126
REMARK   53  A    between atoms: _126  and  _127
REMARK   54  A    between atoms: _130  and  _132
REMARK   55  A    between atoms: _132  and  _133
REMARK   56  A    between atoms: _132  and  _135
REMARK   57  A    between atoms: _135  and  _136
REMARK   58  A    between atoms: _141  and  _143
REMARK   59  A    between atoms: _143  and  _144
REMARK   60  A    between atoms: _143  and  _146
REMARK   61  A    between atoms: _146  and  _147
REMARK   62  A    between atoms: _147  and  _148
REMARK   63  A    between atoms: _151  and  _153
REMARK   64  A    between atoms: _153  and  _154
REMARK   65  A    between atoms: _153  and  _156
REMARK   66  A    between atoms: _156  and  _157
REMARK   67  A    between atoms: _162  and  _164
REMARK   68  A    between atoms: _164  and  _165
REMARK   69  A    between atoms: _164  and  _167
REMARK   70  A    between atoms: _167  and  _168
REMARK   71  A    between atoms: _171  and  _173
REMARK   72  A    between atoms: _173  and  _174
REMARK   73  A    between atoms: _173  and  _176
REMARK   74  A    between atoms: _176  and  _177
REMARK   75  A    between atoms: _182  and  _183
REMARK   76  A    between atoms: _185  and  _187
REMARK   77  A    between atoms: _187  and  _188
REMARK   78  A    between atoms: _187  and  _190
REMARK   79  A    between atoms: _190  and  _191
REMARK   80  A    between atoms: _191  and  _192
REMARK   81  A    between atoms: _197  and  _199
REMARK   82  A    between atoms: _199  and  _200
REMARK   83  A    between atoms: _199  and  _202
REMARK   84  A    between atoms: _202  and  _203
REMARK   85  A    between atoms: _208  and  _210
REMARK   86  A    between atoms: _210  and  _211
REMARK   87  A    between atoms: _210  and  _213
REMARK   88  A    between atoms: _213  and  _214
REMARK   89  A    between atoms: _217  and  _219
REMARK   90  A    between atoms: _219  and  _220
REMARK   91  A    between atoms: _219  and  _222
REMARK   92  A    between atoms: _222  and  _223
REMARK   93  A    between atoms: _223  and  _224
REMARK   94  A    between atoms: _227  and  _229
REMARK   95  A    between atoms: _229  and  _230
REMARK   96  A    between atoms: _229  and  _232
REMARK   97  A    between atoms: _232  and  _233
REMARK   98  A    between atoms: _236  and  _238
REMARK   99  A    between atoms: _238  and  _239
REMARK  100  A    between atoms: _238  and  _241
REMARK  101  A    between atoms: _241  and  _242
REMARK  102  A    between atoms: _252  and  _254
REMARK  103  A    between atoms: _254  and  _255
REMARK  104  A    between atoms: _257  and  _259
REMARK  105  A    between atoms: _259  and  _260
REMARK  106  A    between atoms: _259  and  _262
REMARK  107  A    between atoms: _262  and  _263
REMARK  108  A    between atoms: _268  and  _269
REMARK  109  A    between atoms: _271  and  _273
REMARK  110  A    between atoms: _273  and  _274
REMARK  111  A    between atoms: _273  and  _276
REMARK  112  A    between atoms: _276  and  _277
REMARK  113  A    between atoms: _279  and  _281
REMARK  114  A    between atoms: _281  and  _282
REMARK  115  A    between atoms: _281  and  _284
REMARK  116  A    between atoms: _284  and  _285
REMARK  117  A    between atoms: _295  and  _297
REMARK  118  A    between atoms: _297  and  _298
REMARK  119  A    between atoms: _297  and  _300
REMARK  120  A    between atoms: _303  and  _305
REMARK  121  A    between atoms: _305  and  _306
REMARK  122  A    between atoms: _305  and  _308
REMARK  123  A    between atoms: _308  and  _309
REMARK  124  A    between atoms: _312  and  _314
REMARK  125  A    between atoms: _314  and  _315
REMARK  126  A    between atoms: _314  and  _317
REMARK  127  A    between atoms: _320  and  _322
REMARK  128  A    between atoms: _322  and  _323
REMARK  129  A    between atoms: _322  and  _325
REMARK  130  A    between atoms: _325  and  _326
REMARK                            x       y       z     vdW  Elec       q    Type
REMARK                         _______ _______ _______ _____ _____    ______ ____
ROOT
ATOM      1  C   SER A   2      17.049  57.099  38.147  0.00  0.00    +0.243 C 
ATOM      2  O   SER A   2      15.974  56.535  37.939  0.00  0.00    -0.273 OA
ATOM      3  N   TRP A   3      17.266  58.387  37.891  0.00  0.00    -0.297 N 
ATOM      4  H   TRP A   3      18.212  58.775  38.081  0.00  0.00    +0.150 HD
ENDROOT
BRANCH   3   5
ATOM      5  CA  TRP A   3      16.243  59.283  37.357  0.00  0.00    +0.153 C 
BRANCH   5   6
ATOM      6  C   TRP A   3      15.978  59.115  35.862  0.00  0.00    +0.241 C 
ATOM      7  O   TRP A   3      14.994  59.645  35.338  0.00  0.00    -0.273 OA
ATOM      8  N   VAL A   4      16.852  58.392  35.175  0.00  0.00    -0.298 N 
ATOM      9  H   VAL A   4      17.637  57.928  35.676  0.00  0.00    +0.150 HD
BRANCH   8  10
ATOM     10  CA  VAL A   4      16.732  58.236  33.729  0.00  0.00    +0.137 C 
BRANCH  10  11
ATOM     11  CB  VAL A   4      17.941  57.457  33.161  0.00  0.00    +0.026 C 
ATOM     12  CG2 VAL A   4      19.234  58.216  33.457  0.00  0.00    +0.002 C 
ATOM     13  CG1 VAL A   4      17.783  57.271  31.663  0.00  0.00    +0.002 C 
ENDBRANCH  10  11
BRANCH  10  14
ATOM     14  C   VAL A   4      15.444  57.645  33.150  0.00  0.00    +0.227 C 
ATOM     15  O   VAL A   4      14.745  58.319  32.391  0.00  0.00    -0.286 OA
ENDBRANCH  10  14
ENDBRANCH   8  10
ENDBRANCH   5   6
BRANCH   5  16
ATOM     16  CB  TRP A   3      16.673  60.735  37.583  0.00  0.00    +0.057 C 
BRANCH  16  17
ATOM     17  CG  TRP A   3      17.759  61.178  36.624  0.00  0.00    -0.002 A 
ATOM     18  CD1 TRP A   3      19.022  60.673  36.523  0.00  0.00    +0.068 A 
ATOM     19  NE1 TRP A   3      19.711  61.306  35.510  0.00  0.00    -0.352 N 
ATOM     20  HE1 TRP A   3      20.691  61.105  35.227  0.00  0.00    +0.166 HD
ATOM     21  CE2 TRP A   3      18.892  62.244  34.937  0.00  0.00    +0.056 A 
ATOM     22  CZ2 TRP A   3      19.136  63.133  33.882  0.00  0.00    +0.017 A 
ATOM     23  CH2 TRP A   3      18.117  63.972  33.510  0.00  0.00    +0.001 A 
ATOM     24  CZ3 TRP A   3      16.875  63.946  34.159  0.00  0.00    +0.000 A 
ATOM     25  CE3 TRP A   3      16.632  63.064  35.212  0.00  0.00    +0.001 A 
ATOM     26  CD2 TRP A   3      17.655  62.195  35.613  0.00  0.00    +0.013 A 
ENDBRANCH  16  17
ENDBRANCH   5  16
ENDBRANCH   3   5
BRANCH   1  27
ATOM     27  CA  SER A   2      18.239  56.336  38.721  0.00  0.00    +0.178 C 
BRANCH  27  30
ATOM     28  C   TYR A   1      16.987  55.767  40.735  0.00  0.00    +0.239 C 
ATOM     29  O   TYR A   1      16.537  56.907  40.843  0.00  0.00    -0.274 OA
ATOM     30  N   SER A   2      17.813  55.401  39.758  0.00  0.00    -0.295 N 
ATOM     31  H   SER A   2      18.165  54.423  39.733  0.00  0.00    +0.150 HD
BRANCH  28  32
ATOM     32  CA  TYR A   1      16.611  54.697  41.750  0.00  0.00    +0.149 C 
BRANCH  32  33
ATOM     33  N   TYR A   1      17.127  53.362  41.466  0.00  0.00    -0.238 NA
ATOM     34  H   TYR A   1      18.155  53.207  41.423  0.00  0.00    +0.142 HD
ENDBRANCH  32  33
BRANCH  32  35
ATOM     35  CB  TYR A   1      17.073  55.129  43.142  0.00  0.00    +0.053 C 
BRANCH  35  36
ATOM     36  CG  TYR A   1      16.564  54.226  44.243  0.00  0.00    -0.020 A 
ATOM     37  CD2 TYR A   1      17.413  53.779  45.257  0.00  0.00    -0.001 A 
ATOM     38  CE2 TYR A   1      16.944  52.946  46.274  0.00  0.00    +0.036 A 
ATOM     39  CZ  TYR A   1      15.615  52.558  46.279  0.00  0.00    +0.134 A 
ATOM     40  CE1 TYR A   1      14.756  52.993  45.282  0.00  0.00    +0.036 A 
ATOM     41  CD1 TYR A   1      15.234  53.821  44.272  0.00  0.00    -0.001 A 
BRANCH  39  42
ATOM     42  OH  TYR A   1      15.142  51.734  47.273  0.00  0.00    -0.506 OA
ATOM     43  HH  TYR A   1      15.878  51.518  47.899  0.00  0.00    +0.292 HD
ENDBRANCH  39  42
ENDBRANCH  35  36
ENDBRANCH  32  35
ENDBRANCH  28  32
ENDBRANCH  27  30
BRANCH  27  44
ATOM     44  CB  SER A   2      18.958  55.594  37.596  0.00  0.00    +0.166 C 
BRANCH  44  45
ATOM     45  OG  SER A   2      19.388  56.496  36.591  0.00  0.00    -0.380 OA
ATOM     46  H   SER A   2      20.010  57.157  36.986  0.00  0.00    +0.211 HD
ENDBRANCH  44  45
ENDBRANCH  27  44
ENDBRANCH   1  27
TORSDOF 16
REMARK  Name = ../refined-set-2016/1j01/1j01_pocket.pdb
REMARK  130 active torsions:
REMARK  status: ('A' for Active; 'I' for Inactive)
REMARK    1  A    between atoms: _1  and  _3
REMARK    2  A    between atoms: _3  and  _4
REMARK    3  A    between atoms: _7  and  _9
REMARK    4  A    between atoms: _9  and  _10
REMARK    5  A    between atoms: _9  and  _12
REMARK    6  A    between atoms: _12  and  _13
REMARK    7  A    between atoms: _16  and  _18
REMARK    8  A    between atoms: _18  and  _19
REMARK    9  A    between atoms: _22  and  _24
REMARK   10  A    between atoms: _24  and  _25
REMARK   11  A    between atoms: _24  and  _27
REMARK   12  A    between atoms: _27  and  _28
REMARK   13  A    between atoms: _28  and  _29
REMARK   14  A    between atoms: _32  and  _34
REMARK   15  A    between atoms: _34  and  _35
REMARK   16  A    between atoms: _34  and  _37
REMARK   17  A    between atoms: _37  and  _38
REMARK   18  A    between atoms: _43  and  _45
REMARK   19  A    between atoms: _45  and  _46
REMARK   20  A    between atoms: _45  and  _48
REMARK   21  A    between atoms: _48  and  _49
REMARK   22  A    between atoms: _49  and  _50
REMARK   23  A    between atoms: _50  and  _51
REMARK   24  A    between atoms: _51  and  _52
REMARK   25  A    between atoms: _56  and  _58
REMARK   26  A    between atoms: _58  and  _59
REMARK   27  A    between atoms: _58  and  _61
REMARK   28  A    between atoms: _61  and  _62
REMARK   29  A    between atoms: _65  and  _67
REMARK   30  A    between atoms: _67  and  _68
REMARK   31  A    between atoms: _67  and  _70
REMARK   32  A    between atoms: _70  and  _71
REMARK   33  A    between atoms: _76  and  _78
REMARK   34  A    between atoms: _78  and  _79
REMARK   35  A    between atoms: _78  and  _81
REMARK   36  A    between atoms: _81  and  _82
REMARK   37  A    between atoms: _85  and  _87
REMARK   38  A    between atoms: _87  and  _88
REMARK   39  A    between atoms: _87  and  _90
REMARK   40  A    between atoms: _90  and  _91
REMARK   41  A    between atoms: _101  and  _103
REMARK   42  A    between atoms: _103  and  _104
REMARK   43  A    between atoms: _103  and  _106
REMARK   44  A    between atoms: _106  and  _107
REMARK   45  A    between atoms: _109  and  _111
REMARK   46  A    between atoms: _111  and  _112
REMARK   47  A    between atoms: _111  and  _114
REMARK   48  A    between atoms: _114  and  _115
REMARK   49  A    between atoms: _115  and  _116
REMARK   50  A    between atoms: _121  and  _123
REMARK   51  A    between atoms: _123  and  _124
REMARK   52  A    between atoms: _123  and  _126
REMARK   53  A    between atoms: _126  and  _127
REMARK   54  A    between atoms: _130  and  _132
REMARK   55  A    between atoms: _132  and  _133
REMARK   56  A    between atoms: _132  and  _135
REMARK   57  A    between atoms: _135  and  _136
REMARK   58  A    between atoms: _141  and  _143
REMARK   59  A    between atoms: _143  and  _144
REMARK   60  A    between atoms: _143  and  _146
REMARK   61  A    between atoms: _146  and  _147
REMARK   62  A    between atoms: _147  and  _148
REMARK   63  A    between atoms: _151  and  _153
REMARK   64  A    between atoms: _153  and  _154
REMARK   65  A    between atoms: _153  and  _156
REMARK   66  A    between atoms: _156  and  _157
REMARK   67  A    between atoms: _162  and  _164
REMARK   68  A    between atoms: _164  and  _165
REMARK   69  A    between atoms: _164  and  _167
REMARK   70  A    between atoms: _167  and  _168
REMARK   71  A    between atoms: _171  and  _173
REMARK   72  A    between atoms: _173  and  _174
REMARK   73  A    between atoms: _173  and  _176
REMARK   74  A    between atoms: _176  and  _177
REMARK   75  A    between atoms: _182  and  _183
REMARK   76  A    between atoms: _185  and  _187
REMARK   77  A    between atoms: _187  and  _188
REMARK   78  A    between atoms: _187  and  _190
REMARK   79  A    between atoms: _190  and  _191
REMARK   80  A    between atoms: _191  and  _192
REMARK   81  A    between atoms: _197  and  _199
REMARK   82  A    between atoms: _199  and  _200
REMARK   83  A    between atoms: _199  and  _202
REMARK   84  A    between atoms: _202  and  _203
REMARK   85  A    between atoms: _208  and  _210
REMARK   86  A    between atoms: _210  and  _211
REMARK   87  A    between atoms: _210  and  _213
REMARK   88  A    between atoms: _213  and  _214
REMARK   89  A    between atoms: _217  and  _219
REMARK   90  A    between atoms: _219  and  _220
REMARK   91  A    between atoms: _219  and  _222
REMARK   92  A    between atoms: _222  and  _223
REMARK   93  A    between atoms: _223  and  _224
REMARK   94  A    between atoms: _227  and  _229
REMARK   95  A    between atoms: _229  and  _230
REMARK   96  A    between atoms: _229  and  _232
REMARK   97  A    between atoms: _232  and  _233
REMARK   98  A    between atoms: _236  and  _238
REMARK   99  A    between atoms: _238  and  _239
REMARK  100  A    between atoms: _238  and  _241
REMARK  101  A    between atoms: _241  and  _242
REMARK  102  A    between atoms: _252  and  _254
REMARK  103  A    between atoms: _254  and  _255
REMARK  104  A    between atoms: _257  and  _259
REMARK  105  A    between atoms: _259  and  _260
REMARK  106  A    between atoms: _259  and  _262
REMARK  107  A    between atoms: _262  and  _263
REMARK  108  A    between atoms: _268  and  _269
REMARK  109  A    between atoms: _271  and  _273
REMARK  110  A    between atoms: _273  and  _274
REMARK  111  A    between atoms: _273  and  _276
REMARK  112  A    between atoms: _276  and  _277
REMARK  113  A    between atoms: _279  and  _281
REMARK  114  A    between atoms: _281  and  _282
REMARK  115  A    between atoms: _281  and  _284
REMARK  116  A    between atoms: _284  and  _285
REMARK  117  A    between atoms: _295  and  _297
REMARK  118  A    between atoms: _297  and  _298
REMARK  119  A    between atoms: _297  and  _300
REMARK  120  A    between atoms: _303  and  _305
REMARK  121  A    between atoms: _305  and  _306
REMARK  122  A    between atoms: _305  and  _308
REMARK  123  A    between atoms: _308  and  _309
REMARK  124  A    between atoms: _312  and  _314
REMARK  125  A    between atoms: _314  and  _315
REMARK  126  A    between atoms: _314  and  _317
REMARK  127  A    between atoms: _320  and  _322
REMARK  128  A    between atoms: _322  and  _323
REMARK  129  A    between atoms: _322  and  _325
REMARK  130  A    between atoms: _325  and  _326
REMARK                            x       y       z     vdW  Elec       q    Type
REMARK                         _______ _______ _______ _____ _____    ______ ____
ROOT
ATOM      1  CA  VAL A   2      12.669  60.977  31.937  0.00  0.00    +0.148 C 
ENDROOT
BRANCH   1   3
ATOM      2  C   ASP A   1      11.206  59.398  33.069  0.00  0.00    +0.239 C 
ATOM      3  N   VAL A   2      12.434  59.788  32.749  0.00  0.00    -0.297 N 
ATOM      4  H   VAL A   2      13.247  59.233  33.085  0.00  0.00    +0.150 HD
ATOM      5  O   ASP A   1      10.198  59.998  32.695  0.00  0.00    -0.274 OA
BRANCH   2   6
ATOM      6  CA  ASP A   1      11.086  58.153  33.942  0.00  0.00    +0.156 C 
BRANCH   6   7
ATOM      7  N   ASP A   1      12.287  57.322  33.949  0.00  0.00    -0.238 NA
ATOM      8  H   ASP A   1      12.883  57.284  34.801  0.00  0.00    +0.142 HD
ENDBRANCH   6   7
BRANCH   6   9
ATOM      9  CB  ASP A   1      10.729  58.573  35.370  0.00  0.00    +0.140 C 
BRANCH   9  10
ATOM     10  CG  ASP A   1      10.258  57.411  36.220  0.00  0.00    +0.367 C 
ATOM     11  OD2 ASP A   1      10.148  57.583  37.450  0.00  0.00    -0.246 OA
ATOM     12  OD1 ASP A   1       9.993  56.328  35.661  0.00  0.00    -0.246 OA
ENDBRANCH   9  10
ENDBRANCH   6   9
ENDBRANCH   2   6
ENDBRANCH   1   3
BRANCH   1  13
ATOM     13  C   VAL A   2      12.973  60.647  30.481  0.00  0.00    +0.241 C 
ATOM     14  N   PHE A   3      13.657  59.529  30.261  0.00  0.00    -0.298 N 
ATOM     15  H   PHE A   3      13.932  58.939  31.072  0.00  0.00    +0.150 HD
ATOM     16  O   VAL A   2      12.597  61.394  29.579  0.00  0.00    -0.273 OA
BRANCH  14  17
ATOM     17  CA  PHE A   3      14.033  59.105  28.920  0.00  0.00    +0.141 C 
BRANCH  17  18
ATOM     18  C   PHE A   3      13.421  57.739  28.628  0.00  0.00    +0.227 C 
ATOM     19  O   PHE A   3      14.049  56.707  28.865  0.00  0.00    -0.286 OA
ENDBRANCH  17  18
BRANCH  17  20
ATOM     20  CB  PHE A   3      15.555  59.021  28.815  0.00  0.00    +0.054 C 
BRANCH  20  21
ATOM     21  CG  PHE A   3      16.261  60.311  29.135  0.00  0.00    -0.020 A 
ATOM     22  CD2 PHE A   3      16.849  60.506  30.384  0.00  0.00    -0.004 A 
ATOM     23  CE2 PHE A   3      17.518  61.695  30.685  0.00  0.00    -0.000 A 
ATOM     24  CZ  PHE A   3      17.600  62.702  29.731  0.00  0.00    -0.000 A 
ATOM     25  CE1 PHE A   3      17.013  62.519  28.479  0.00  0.00    -0.000 A 
ATOM     26  CD1 PHE A   3      16.347  61.328  28.189  0.00  0.00    -0.004 A 
ENDBRANCH  20  21
ENDBRANCH  17  20
ENDBRANCH  14  17
ENDBRANCH   1  13
BRANCH   1  27
ATOM     27  CB  VAL A   2      13.846  61.808  32.502  0.00  0.00    +0.027 C 
ATOM     28  CG2 VAL A   2      13.527  62.256  33.921  0.00  0.00    +0.002 C 
ATOM     29  CG1 VAL A   2      14.116  63.019  31.610  0.00  0.00    +0.002 C 
ENDBRANCH   1  27
TORSDOF 11
REMARK  Name = ../refined-set-2016/1j01/1j01_pocket.pdb
REMARK  130 active torsions:
REMARK  status: ('A' for Active; 'I' for Inactive)
REMARK    1  A    between atoms: _1  and  _3
REMARK    2  A    between atoms: _3  and  _4
REMARK    3  A    between atoms: _7  and  _9
REMARK    4  A    between atoms: _9  and  _10
REMARK    5  A    between atoms: _9  and  _12
REMARK    6  A    between atoms: _12  and  _13
REMARK    7  A    between atoms: _16  and  _18
REMARK    8  A    between atoms: _18  and  _19
REMARK    9  A    between atoms: _22  and  _24
REMARK   10  A    between atoms: _24  and  _25
REMARK   11  A    between atoms: _24  and  _27
REMARK   12  A    between atoms: _27  and  _28
REMARK   13  A    between atoms: _28  and  _29
REMARK   14  A    between atoms: _32  and  _34
REMARK   15  A    between atoms: _34  and  _35
REMARK   16  A    between atoms: _34  and  _37
REMARK   17  A    between atoms: _37  and  _38
REMARK   18  A    between atoms: _43  and  _45
REMARK   19  A    between atoms: _45  and  _46
REMARK   20  A    between atoms: _45  and  _48
REMARK   21  A    between atoms: _48  and  _49
REMARK   22  A    between atoms: _49  and  _50
REMARK   23  A    between atoms: _50  and  _51
REMARK   24  A    between atoms: _51  and  _52
REMARK   25  A    between atoms: _56  and  _58
REMARK   26  A    between atoms: _58  and  _59
REMARK   27  A    between atoms: _58  and  _61
REMARK   28  A    between atoms: _61  and  _62
REMARK   29  A    between atoms: _65  and  _67
REMARK   30  A    between atoms: _67  and  _68
REMARK   31  A    between atoms: _67  and  _70
REMARK   32  A    between atoms: _70  and  _71
REMARK   33  A    between atoms: _76  and  _78
REMARK   34  A    between atoms: _78  and  _79
REMARK   35  A    between atoms: _78  and  _81
REMARK   36  A    between atoms: _81  and  _82
REMARK   37  A    between atoms: _85  and  _87
REMARK   38  A    between atoms: _87  and  _88
REMARK   39  A    between atoms: _87  and  _90
REMARK   40  A    between atoms: _90  and  _91
REMARK   41  A    between atoms: _101  and  _103
REMARK   42  A    between atoms: _103  and  _104
REMARK   43  A    between atoms: _103  and  _106
REMARK   44  A    between atoms: _106  and  _107
REMARK   45  A    between atoms: _109  and  _111
REMARK   46  A    between atoms: _111  and  _112
REMARK   47  A    between atoms: _111  and  _114
REMARK   48  A    between atoms: _114  and  _115
REMARK   49  A    between atoms: _115  and  _116
REMARK   50  A    between atoms: _121  and  _123
REMARK   51  A    between atoms: _123  and  _124
REMARK   52  A    between atoms: _123  and  _126
REMARK   53  A    between atoms: _126  and  _127
REMARK   54  A    between atoms: _130  and  _132
REMARK   55  A    between atoms: _132  and  _133
REMARK   56  A    between atoms: _132  and  _135
REMARK   57  A    between atoms: _135  and  _136
REMARK   58  A    between atoms: _141  and  _143
REMARK   59  A    between atoms: _143  and  _144
REMARK   60  A    between atoms: _143  and  _146
REMARK   61  A    between atoms: _146  and  _147
REMARK   62  A    between atoms: _147  and  _148
REMARK   63  A    between atoms: _151  and  _153
REMARK   64  A    between atoms: _153  and  _154
REMARK   65  A    between atoms: _153  and  _156
REMARK   66  A    between atoms: _156  and  _157
REMARK   67  A    between atoms: _162  and  _164
REMARK   68  A    between atoms: _164  and  _165
REMARK   69  A    between atoms: _164  and  _167
REMARK   70  A    between atoms: _167  and  _168
REMARK   71  A    between atoms: _171  and  _173
REMARK   72  A    between atoms: _173  and  _174
REMARK   73  A    between atoms: _173  and  _176
REMARK   74  A    between atoms: _176  and  _177
REMARK   75  A    between atoms: _182  and  _183
REMARK   76  A    between atoms: _185  and  _187
REMARK   77  A    between atoms: _187  and  _188
REMARK   78  A    between atoms: _187  and  _190
REMARK   79  A    between atoms: _190  and  _191
REMARK   80  A    between atoms: _191  and  _192
REMARK   81  A    between atoms: _197  and  _199
REMARK   82  A    between atoms: _199  and  _200
REMARK   83  A    between atoms: _199  and  _202
REMARK   84  A    between atoms: _202  and  _203
REMARK   85  A    between atoms: _208  and  _210
REMARK   86  A    between atoms: _210  and  _211
REMARK   87  A    between atoms: _210  and  _213
REMARK   88  A    between atoms: _213  and  _214
REMARK   89  A    between atoms: _217  and  _219
REMARK   90  A    between atoms: _219  and  _220
REMARK   91  A    between atoms: _219  and  _222
REMARK   92  A    between atoms: _222  and  _223
REMARK   93  A    between atoms: _223  and  _224
REMARK   94  A    between atoms: _227  and  _229
REMARK   95  A    between atoms: _229  and  _230
REMARK   96  A    between atoms: _229  and  _232
REMARK   97  A    between atoms: _232  and  _233
REMARK   98  A    between atoms: _236  and  _238
REMARK   99  A    between atoms: _238  and  _239
REMARK  100  A    between atoms: _238  and  _241
REMARK  101  A    between atoms: _241  and  _242
REMARK  102  A    between atoms: _252  and  _254
REMARK  103  A    between atoms: _254  and  _255
REMARK  104  A    between atoms: _257  and  _259
REMARK  105  A    between atoms: _259  and  _260
REMARK  106  A    between atoms: _259  and  _262
REMARK  107  A    between atoms: _262  and  _263
REMARK  108  A    between atoms: _268  and  _269
REMARK  109  A    between atoms: _271  and  _273
REMARK  110  A    between atoms: _273  and  _274
REMARK  111  A    between atoms: _273  and  _276
REMARK  112  A    between atoms: _276  and  _277
REMARK  113  A    between atoms: _279  and  _281
REMARK  114  A    between atoms: _281  and  _282
REMARK  115  A    between atoms: _281  and  _284
REMARK  116  A    between atoms: _284  and  _285
REMARK  117  A    between atoms: _295  and  _297
REMARK  118  A    between atoms: _297  and  _298
REMARK  119  A    between atoms: _297  and  _300
REMARK  120  A    between atoms: _303  and  _305
REMARK  121  A    between atoms: _305  and  _306
REMARK  122  A    between atoms: _305  and  _308
REMARK  123  A    between atoms: _308  and  _309
REMARK  124  A    between atoms: _312  and  _314
REMARK  125  A    between atoms: _314  and  _315
REMARK  126  A    between atoms: _314  and  _317
REMARK  127  A    between atoms: _320  and  _322
REMARK  128  A    between atoms: _322  and  _323
REMARK  129  A    between atoms: _322  and  _325
REMARK  130  A    between atoms: _325  and  _326
REMARK                            x       y       z     vdW  Elec       q    Type
REMARK                         _______ _______ _______ _____ _____    ______ ____
ROOT
ATOM      1  O   HOH     1      19.501  59.565  39.801  0.00  0.00    +0.000 OA
ENDROOT
TORSDOF 0
REMARK  Name = ../refined-set-2016/1j01/1j01_pocket.pdb
REMARK  130 active torsions:
REMARK  status: ('A' for Active; 'I' for Inactive)
REMARK    1  A    between atoms: _1  and  _3
REMARK    2  A    between atoms: _3  and  _4
REMARK    3  A    between atoms: _7  and  _9
REMARK    4  A    between atoms: _9  and  _10
REMARK    5  A    between atoms: _9  and  _12
REMARK    6  A    between atoms: _12  and  _13
REMARK    7  A    between atoms: _16  and  _18
REMARK    8  A    between atoms: _18  and  _19
REMARK    9  A    between atoms: _22  and  _24
REMARK   10  A    between atoms: _24  and  _25
REMARK   11  A    between atoms: _24  and  _27
REMARK   12  A    between atoms: _27  and  _28
REMARK   13  A    between atoms: _28  and  _29
REMARK   14  A    between atoms: _32  and  _34
REMARK   15  A    between atoms: _34  and  _35
REMARK   16  A    between atoms: _34  and  _37
REMARK   17  A    between atoms: _37  and  _38
REMARK   18  A    between atoms: _43  and  _45
REMARK   19  A    between atoms: _45  and  _46
REMARK   20  A    between atoms: _45  and  _48
REMARK   21  A    between atoms: _48  and  _49
REMARK   22  A    between atoms: _49  and  _50
REMARK   23  A    between atoms: _50  and  _51
REMARK   24  A    between atoms: _51  and  _52
REMARK   25  A    between atoms: _56  and  _58
REMARK   26  A    between atoms: _58  and  _59
REMARK   27  A    between atoms: _58  and  _61
REMARK   28  A    between atoms: _61  and  _62
REMARK   29  A    between atoms: _65  and  _67
REMARK   30  A    between atoms: _67  and  _68
REMARK   31  A    between atoms: _67  and  _70
REMARK   32  A    between atoms: _70  and  _71
REMARK   33  A    between atoms: _76  and  _78
REMARK   34  A    between atoms: _78  and  _79
REMARK   35  A    between atoms: _78  and  _81
REMARK   36  A    between atoms: _81  and  _82
REMARK   37  A    between atoms: _85  and  _87
REMARK   38  A    between atoms: _87  and  _88
REMARK   39  A    between atoms: _87  and  _90
REMARK   40  A    between atoms: _90  and  _91
REMARK   41  A    between atoms: _101  and  _103
REMARK   42  A    between atoms: _103  and  _104
REMARK   43  A    between atoms: _103  and  _106
REMARK   44  A    between atoms: _106  and  _107
REMARK   45  A    between atoms: _109  and  _111
REMARK   46  A    between atoms: _111  and  _112
REMARK   47  A    between atoms: _111  and  _114
REMARK   48  A    between atoms: _114  and  _115
REMARK   49  A    between atoms: _115  and  _116
REMARK   50  A    between atoms: _121  and  _123
REMARK   51  A    between atoms: _123  and  _124
REMARK   52  A    between atoms: _123  and  _126
REMARK   53  A    between atoms: _126  and  _127
REMARK   54  A    between atoms: _130  and  _132
REMARK   55  A    between atoms: _132  and  _133
REMARK   56  A    between atoms: _132  and  _135
REMARK   57  A    between atoms: _135  and  _136
REMARK   58  A    between atoms: _141  and  _143
REMARK   59  A    between atoms: _143  and  _144
REMARK   60  A    between atoms: _143  and  _146
REMARK   61  A    between atoms: _146  and  _147
REMARK   62  A    between atoms: _147  and  _148
REMARK   63  A    between atoms: _151  and  _153
REMARK   64  A    between atoms: _153  and  _154
REMARK   65  A    between atoms: _153  and  _156
REMARK   66  A    between atoms: _156  and  _157
REMARK   67  A    between atoms: _162  and  _164
REMARK   68  A    between atoms: _164  and  _165
REMARK   69  A    between atoms: _164  and  _167
REMARK   70  A    between atoms: _167  and  _168
REMARK   71  A    between atoms: _171  and  _173
REMARK   72  A    between atoms: _173  and  _174
REMARK   73  A    between atoms: _173  and  _176
REMARK   74  A    between atoms: _176  and  _177
REMARK   75  A    between atoms: _182  and  _183
REMARK   76  A    between atoms: _185  and  _187
REMARK   77  A    between atoms: _187  and  _188
REMARK   78  A    between atoms: _187  and  _190
REMARK   79  A    between atoms: _190  and  _191
REMARK   80  A    between atoms: _191  and  _192
REMARK   81  A    between atoms: _197  and  _199
REMARK   82  A    between atoms: _199  and  _200
REMARK   83  A    between atoms: _199  and  _202
REMARK   84  A    between atoms: _202  and  _203
REMARK   85  A    between atoms: _208  and  _210
REMARK   86  A    between atoms: _210  and  _211
REMARK   87  A    between atoms: _210  and  _213
REMARK   88  A    between atoms: _213  and  _214
REMARK   89  A    between atoms: _217  and  _219
REMARK   90  A    between atoms: _219  and  _220
REMARK   91  A    between atoms: _219  and  _222
REMARK   92  A    between atoms: _222  and  _223
REMARK   93  A    between atoms: _223  and  _224
REMARK   94  A    between atoms: _227  and  _229
REMARK   95  A    between atoms: _229  and  _230
REMARK   96  A    between atoms: _229  and  _232
REMARK   97  A    between atoms: _232  and  _233
REMARK   98  A    between atoms: _236  and  _238
REMARK   99  A    between atoms: _238  and  _239
REMARK  100  A    between atoms: _238  and  _241
REMARK  101  A    between atoms: _241  and  _242
REMARK  102  A    between atoms: _252  and  _254
REMARK  103  A    between atoms: _254  and  _255
REMARK  104  A    between atoms: _257  and  _259
REMARK  105  A    between atoms: _259  and  _260
REMARK  106  A    between atoms: _259  and  _262
REMARK  107  A    between atoms: _262  and  _263
REMARK  108  A    between atoms: _268  and  _269
REMARK  109  A    between atoms: _271  and  _273
REMARK  110  A    between atoms: _273  and  _274
REMARK  111  A    between atoms: _273  and  _276
REMARK  112  A    between atoms: _276  and  _277
REMARK  113  A    between atoms: _279  and  _281
REMARK  114  A    between atoms: _281  and  _282
REMARK  115  A    between atoms: _281  and  _284
REMARK  116  A    between atoms: _284  and  _285
REMARK  117  A    between atoms: _295  and  _297
REMARK  118  A    between atoms: _297  and  _298
REMARK  119  A    between atoms: _297  and  _300
REMARK  120  A    between atoms: _303  and  _305
REMARK  121  A    between atoms: _305  and  _306
REMARK  122  A    between atoms: _305  and  _308
REMARK  123  A    between atoms: _308  and  _309
REMARK  124  A    between atoms: _312  and  _314
REMARK  125  A    between atoms: _314  and  _315
REMARK  126  A    between atoms: _314  and  _317
REMARK  127  A    between atoms: _320  and  _322
REMARK  128  A    between atoms: _322  and  _323
REMARK  129  A    between atoms: _322  and  _325
REMARK  130  A    between atoms: _325  and  _326
REMARK                            x       y       z     vdW  Elec       q    Type
REMARK                         _______ _______ _______ _____ _____    ______ ____
ROOT
ATOM      1  O   HOH     1      15.736  57.795  45.496  0.00  0.00    +0.000 OA
ENDROOT
TORSDOF 0
REMARK  Name = ../refined-set-2016/1j01/1j01_pocket.pdb
REMARK  130 active torsions:
REMARK  status: ('A' for Active; 'I' for Inactive)
REMARK    1  A    between atoms: _1  and  _3
REMARK    2  A    between atoms: _3  and  _4
REMARK    3  A    between atoms: _7  and  _9
REMARK    4  A    between atoms: _9  and  _10
REMARK    5  A    between atoms: _9  and  _12
REMARK    6  A    between atoms: _12  and  _13
REMARK    7  A    between atoms: _16  and  _18
REMARK    8  A    between atoms: _18  and  _19
REMARK    9  A    between atoms: _22  and  _24
REMARK   10  A    between atoms: _24  and  _25
REMARK   11  A    between atoms: _24  and  _27
REMARK   12  A    between atoms: _27  and  _28
REMARK   13  A    between atoms: _28  and  _29
REMARK   14  A    between atoms: _32  and  _34
REMARK   15  A    between atoms: _34  and  _35
REMARK   16  A    between atoms: _34  and  _37
REMARK   17  A    between atoms: _37  and  _38
REMARK   18  A    between atoms: _43  and  _45
REMARK   19  A    between atoms: _45  and  _46
REMARK   20  A    between atoms: _45  and  _48
REMARK   21  A    between atoms: _48  and  _49
REMARK   22  A    between atoms: _49  and  _50
REMARK   23  A    between atoms: _50  and  _51
REMARK   24  A    between atoms: _51  and  _52
REMARK   25  A    between atoms: _56  and  _58
REMARK   26  A    between atoms: _58  and  _59
REMARK   27  A    between atoms: _58  and  _61
REMARK   28  A    between atoms: _61  and  _62
REMARK   29  A    between atoms: _65  and  _67
REMARK   30  A    between atoms: _67  and  _68
REMARK   31  A    between atoms: _67  and  _70
REMARK   32  A    between atoms: _70  and  _71
REMARK   33  A    between atoms: _76  and  _78
REMARK   34  A    between atoms: _78  and  _79
REMARK   35  A    between atoms: _78  and  _81
REMARK   36  A    between atoms: _81  and  _82
REMARK   37  A    between atoms: _85  and  _87
REMARK   38  A    between atoms: _87  and  _88
REMARK   39  A    between atoms: _87  and  _90
REMARK   40  A    between atoms: _90  and  _91
REMARK   41  A    between atoms: _101  and  _103
REMARK   42  A    between atoms: _103  and  _104
REMARK   43  A    between atoms: _103  and  _106
REMARK   44  A    between atoms: _106  and  _107
REMARK   45  A    between atoms: _109  and  _111
REMARK   46  A    between atoms: _111  and  _112
REMARK   47  A    between atoms: _111  and  _114
REMARK   48  A    between atoms: _114  and  _115
REMARK   49  A    between atoms: _115  and  _116
REMARK   50  A    between atoms: _121  and  _123
REMARK   51  A    between atoms: _123  and  _124
REMARK   52  A    between atoms: _123  and  _126
REMARK   53  A    between atoms: _126  and  _127
REMARK   54  A    between atoms: _130  and  _132
REMARK   55  A    between atoms: _132  and  _133
REMARK   56  A    between atoms: _132  and  _135
REMARK   57  A    between atoms: _135  and  _136
REMARK   58  A    between atoms: _141  and  _143
REMARK   59  A    between atoms: _143  and  _144
REMARK   60  A    between atoms: _143  and  _146
REMARK   61  A    between atoms: _146  and  _147
REMARK   62  A    between atoms: _147  and  _148
REMARK   63  A    between atoms: _151  and  _153
REMARK   64  A    between atoms: _153  and  _154
REMARK   65  A    between atoms: _153  and  _156
REMARK   66  A    between atoms: _156  and  _157
REMARK   67  A    between atoms: _162  and  _164
REMARK   68  A    between atoms: _164  and  _165
REMARK   69  A    between atoms: _164  and  _167
REMARK   70  A    between atoms: _167  and  _168
REMARK   71  A    between atoms: _171  and  _173
REMARK   72  A    between atoms: _173  and  _174
REMARK   73  A    between atoms: _173  and  _176
REMARK   74  A    between atoms: _176  and  _177
REMARK   75  A    between atoms: _182  and  _183
REMARK   76  A    between atoms: _185  and  _187
REMARK   77  A    between atoms: _187  and  _188
REMARK   78  A    between atoms: _187  and  _190
REMARK   79  A    between atoms: _190  and  _191
REMARK   80  A    between atoms: _191  and  _192
REMARK   81  A    between atoms: _197  and  _199
REMARK   82  A    between atoms: _199  and  _200
REMARK   83  A    between atoms: _199  and  _202
REMARK   84  A    between atoms: _202  and  _203
REMARK   85  A    between atoms: _208  and  _210
REMARK   86  A    between atoms: _210  and  _211
REMARK   87  A    between atoms: _210  and  _213
REMARK   88  A    between atoms: _213  and  _214
REMARK   89  A    between atoms: _217  and  _219
REMARK   90  A    between atoms: _219  and  _220
REMARK   91  A    between atoms: _219  and  _222
REMARK   92  A    between atoms: _222  and  _223
REMARK   93  A    between atoms: _223  and  _224
REMARK   94  A    between atoms: _227  and  _229
REMARK   95  A    between atoms: _229  and  _230
REMARK   96  A    between atoms: _229  and  _232
REMARK   97  A    between atoms: _232  and  _233
REMARK   98  A    between atoms: _236  and  _238
REMARK   99  A    between atoms: _238  and  _239
REMARK  100  A    between atoms: _238  and  _241
REMARK  101  A    between atoms: _241  and  _242
REMARK  102  A    between atoms: _252  and  _254
REMARK  103  A    between atoms: _254  and  _255
REMARK  104  A    between atoms: _257  and  _259
REMARK  105  A    between atoms: _259  and  _260
REMARK  106  A    between atoms: _259  and  _262
REMARK  107  A    between atoms: _262  and  _263
REMARK  108  A    between atoms: _268  and  _269
REMARK  109  A    between atoms: _271  and  _273
REMARK  110  A    between atoms: _273  and  _274
REMARK  111  A    between atoms: _273  and  _276
REMARK  112  A    between atoms: _276  and  _277
REMARK  113  A    between atoms: _279  and  _281
REMARK  114  A    between atoms: _281  and  _282
REMARK  115  A    between atoms: _281  and  _284
REMARK  116  A    between atoms: _284  and  _285
REMARK  117  A    between atoms: _295  and  _297
REMARK  118  A    between atoms: _297  and  _298
REMARK  119  A    between atoms: _297  and  _300
REMARK  120  A    between atoms: _303  and  _305
REMARK  121  A    between atoms: _305  and  _306
REMARK  122  A    between atoms: _305  and  _308
REMARK  123  A    between atoms: _308  and  _309
REMARK  124  A    between atoms: _312  and  _314
REMARK  125  A    between atoms: _314  and  _315
REMARK  126  A    between atoms: _314  and  _317
REMARK  127  A    between atoms: _320  and  _322
REMARK  128  A    between atoms: _322  and  _323
REMARK  129  A    between atoms: _322  and  _325
REMARK  130  A    between atoms: _325  and  _326
REMARK                            x       y       z     vdW  Elec       q    Type
REMARK                         _______ _______ _______ _____ _____    ______ ____
ROOT
ATOM      1  O   HOH     1      17.193  74.762  42.290  0.00  0.00    +0.000 OA
ENDROOT
TORSDOF 0
REMARK  Name = ../refined-set-2016/1j01/1j01_pocket.pdb
REMARK  130 active torsions:
REMARK  status: ('A' for Active; 'I' for Inactive)
REMARK    1  A    between atoms: _1  and  _3
REMARK    2  A    between atoms: _3  and  _4
REMARK    3  A    between atoms: _7  and  _9
REMARK    4  A    between atoms: _9  and  _10
REMARK    5  A    between atoms: _9  and  _12
REMARK    6  A    between atoms: _12  and  _13
REMARK    7  A    between atoms: _16  and  _18
REMARK    8  A    between atoms: _18  and  _19
REMARK    9  A    between atoms: _22  and  _24
REMARK   10  A    between atoms: _24  and  _25
REMARK   11  A    between atoms: _24  and  _27
REMARK   12  A    between atoms: _27  and  _28
REMARK   13  A    between atoms: _28  and  _29
REMARK   14  A    between atoms: _32  and  _34
REMARK   15  A    between atoms: _34  and  _35
REMARK   16  A    between atoms: _34  and  _37
REMARK   17  A    between atoms: _37  and  _38
REMARK   18  A    between atoms: _43  and  _45
REMARK   19  A    between atoms: _45  and  _46
REMARK   20  A    between atoms: _45  and  _48
REMARK   21  A    between atoms: _48  and  _49
REMARK   22  A    between atoms: _49  and  _50
REMARK   23  A    between atoms: _50  and  _51
REMARK   24  A    between atoms: _51  and  _52
REMARK   25  A    between atoms: _56  and  _58
REMARK   26  A    between atoms: _58  and  _59
REMARK   27  A    between atoms: _58  and  _61
REMARK   28  A    between atoms: _61  and  _62
REMARK   29  A    between atoms: _65  and  _67
REMARK   30  A    between atoms: _67  and  _68
REMARK   31  A    between atoms: _67  and  _70
REMARK   32  A    between atoms: _70  and  _71
REMARK   33  A    between atoms: _76  and  _78
REMARK   34  A    between atoms: _78  and  _79
REMARK   35  A    between atoms: _78  and  _81
REMARK   36  A    between atoms: _81  and  _82
REMARK   37  A    between atoms: _85  and  _87
REMARK   38  A    between atoms: _87  and  _88
REMARK   39  A    between atoms: _87  and  _90
REMARK   40  A    between atoms: _90  and  _91
REMARK   41  A    between atoms: _101  and  _103
REMARK   42  A    between atoms: _103  and  _104
REMARK   43  A    between atoms: _103  and  _106
REMARK   44  A    between atoms: _106  and  _107
REMARK   45  A    between atoms: _109  and  _111
REMARK   46  A    between atoms: _111  and  _112
REMARK   47  A    between atoms: _111  and  _114
REMARK   48  A    between atoms: _114  and  _115
REMARK   49  A    between atoms: _115  and  _116
REMARK   50  A    between atoms: _121  and  _123
REMARK   51  A    between atoms: _123  and  _124
REMARK   52  A    between atoms: _123  and  _126
REMARK   53  A    between atoms: _126  and  _127
REMARK   54  A    between atoms: _130  and  _132
REMARK   55  A    between atoms: _132  and  _133
REMARK   56  A    between atoms: _132  and  _135
REMARK   57  A    between atoms: _135  and  _136
REMARK   58  A    between atoms: _141  and  _143
REMARK   59  A    between atoms: _143  and  _144
REMARK   60  A    between atoms: _143  and  _146
REMARK   61  A    between atoms: _146  and  _147
REMARK   62  A    between atoms: _147  and  _148
REMARK   63  A    between atoms: _151  and  _153
REMARK   64  A    between atoms: _153  and  _154
REMARK   65  A    between atoms: _153  and  _156
REMARK   66  A    between atoms: _156  and  _157
REMARK   67  A    between atoms: _162  and  _164
REMARK   68  A    between atoms: _164  and  _165
REMARK   69  A    between atoms: _164  and  _167
REMARK   70  A    between atoms: _167  and  _168
REMARK   71  A    between atoms: _171  and  _173
REMARK   72  A    between atoms: _173  and  _174
REMARK   73  A    between atoms: _173  and  _176
REMARK   74  A    between atoms: _176  and  _177
REMARK   75  A    between atoms: _182  and  _183
REMARK   76  A    between atoms: _185  and  _187
REMARK   77  A    between atoms: _187  and  _188
REMARK   78  A    between atoms: _187  and  _190
REMARK   79  A    between atoms: _190  and  _191
REMARK   80  A    between atoms: _191  and  _192
REMARK   81  A    between atoms: _197  and  _199
REMARK   82  A    between atoms: _199  and  _200
REMARK   83  A    between atoms: _199  and  _202
REMARK   84  A    between atoms: _202  and  _203
REMARK   85  A    between atoms: _208  and  _210
REMARK   86  A    between atoms: _210  and  _211
REMARK   87  A    between atoms: _210  and  _213
REMARK   88  A    between atoms: _213  and  _214
REMARK   89  A    between atoms: _217  and  _219
REMARK   90  A    between atoms: _219  and  _220
REMARK   91  A    between atoms: _219  and  _222
REMARK   92  A    between atoms: _222  and  _223
REMARK   93  A    between atoms: _223  and  _224
REMARK   94  A    between atoms: _227  and  _229
REMARK   95  A    between atoms: _229  and  _230
REMARK   96  A    between atoms: _229  and  _232
REMARK   97  A    between atoms: _232  and  _233
REMARK   98  A    between atoms: _236  and  _238
REMARK   99  A    between atoms: _238  and  _239
REMARK  100  A    between atoms: _238  and  _241
REMARK  101  A    between atoms: _241  and  _242
REMARK  102  A    between atoms: _252  and  _254
REMARK  103  A    between atoms: _254  and  _255
REMARK  104  A    between atoms: _257  and  _259
REMARK  105  A    between atoms: _259  and  _260
REMARK  106  A    between atoms: _259  and  _262
REMARK  107  A    between atoms: _262  and  _263
REMARK  108  A    between atoms: _268  and  _269
REMARK  109  A    between atoms: _271  and  _273
REMARK  110  A    between atoms: _273  and  _274
REMARK  111  A    between atoms: _273  and  _276
REMARK  112  A    between atoms: _276  and  _277
REMARK  113  A    between atoms: _279  and  _281
REMARK  114  A    between atoms: _281  and  _282
REMARK  115  A    between atoms: _281  and  _284
REMARK  116  A    between atoms: _284  and  _285
REMARK  117  A    between atoms: _295  and  _297
REMARK  118  A    between atoms: _297  and  _298
REMARK  119  A    between atoms: _297  and  _300
REMARK  120  A    between atoms: _303  and  _305
REMARK  121  A    between atoms: _305  and  _306
REMARK  122  A    between atoms: _305  and  _308
REMARK  123  A    between atoms: _308  and  _309
REMARK  124  A    between atoms: _312  and  _314
REMARK  125  A    between atoms: _314  and  _315
REMARK  126  A    between atoms: _314  and  _317
REMARK  127  A    between atoms: _320  and  _322
REMARK  128  A    between atoms: _322  and  _323
REMARK  129  A    between atoms: _322  and  _325
REMARK  130  A    between atoms: _325  and  _326
REMARK                            x       y       z     vdW  Elec       q    Type
REMARK                         _______ _______ _______ _____ _____    ______ ____
ROOT
ATOM      1  O   HOH     1      19.387  57.481  41.927  0.00  0.00    +0.000 OA
ENDROOT
TORSDOF 0
REMARK  Name = ../refined-set-2016/1j01/1j01_pocket.pdb
REMARK  130 active torsions:
REMARK  status: ('A' for Active; 'I' for Inactive)
REMARK    1  A    between atoms: _1  and  _3
REMARK    2  A    between atoms: _3  and  _4
REMARK    3  A    between atoms: _7  and  _9
REMARK    4  A    between atoms: _9  and  _10
REMARK    5  A    between atoms: _9  and  _12
REMARK    6  A    between atoms: _12  and  _13
REMARK    7  A    between atoms: _16  and  _18
REMARK    8  A    between atoms: _18  and  _19
REMARK    9  A    between atoms: _22  and  _24
REMARK   10  A    between atoms: _24  and  _25
REMARK   11  A    between atoms: _24  and  _27
REMARK   12  A    between atoms: _27  and  _28
REMARK   13  A    between atoms: _28  and  _29
REMARK   14  A    between atoms: _32  and  _34
REMARK   15  A    between atoms: _34  and  _35
REMARK   16  A    between atoms: _34  and  _37
REMARK   17  A    between atoms: _37  and  _38
REMARK   18  A    between atoms: _43  and  _45
REMARK   19  A    between atoms: _45  and  _46
REMARK   20  A    between atoms: _45  and  _48
REMARK   21  A    between atoms: _48  and  _49
REMARK   22  A    between atoms: _49  and  _50
REMARK   23  A    between atoms: _50  and  _51
REMARK   24  A    between atoms: _51  and  _52
REMARK   25  A    between atoms: _56  and  _58
REMARK   26  A    between atoms: _58  and  _59
REMARK   27  A    between atoms: _58  and  _61
REMARK   28  A    between atoms: _61  and  _62
REMARK   29  A    between atoms: _65  and  _67
REMARK   30  A    between atoms: _67  and  _68
REMARK   31  A    between atoms: _67  and  _70
REMARK   32  A    between atoms: _70  and  _71
REMARK   33  A    between atoms: _76  and  _78
REMARK   34  A    between atoms: _78  and  _79
REMARK   35  A    between atoms: _78  and  _81
REMARK   36  A    between atoms: _81  and  _82
REMARK   37  A    between atoms: _85  and  _87
REMARK   38  A    between atoms: _87  and  _88
REMARK   39  A    between atoms: _87  and  _90
REMARK   40  A    between atoms: _90  and  _91
REMARK   41  A    between atoms: _101  and  _103
REMARK   42  A    between atoms: _103  and  _104
REMARK   43  A    between atoms: _103  and  _106
REMARK   44  A    between atoms: _106  and  _107
REMARK   45  A    between atoms: _109  and  _111
REMARK   46  A    between atoms: _111  and  _112
REMARK   47  A    between atoms: _111  and  _114
REMARK   48  A    between atoms: _114  and  _115
REMARK   49  A    between atoms: _115  and  _116
REMARK   50  A    between atoms: _121  and  _123
REMARK   51  A    between atoms: _123  and  _124
REMARK   52  A    between atoms: _123  and  _126
REMARK   53  A    between atoms: _126  and  _127
REMARK   54  A    between atoms: _130  and  _132
REMARK   55  A    between atoms: _132  and  _133
REMARK   56  A    between atoms: _132  and  _135
REMARK   57  A    between atoms: _135  and  _136
REMARK   58  A    between atoms: _141  and  _143
REMARK   59  A    between atoms: _143  and  _144
REMARK   60  A    between atoms: _143  and  _146
REMARK   61  A    between atoms: _146  and  _147
REMARK   62  A    between atoms: _147  and  _148
REMARK   63  A    between atoms: _151  and  _153
REMARK   64  A    between atoms: _153  and  _154
REMARK   65  A    between atoms: _153  and  _156
REMARK   66  A    between atoms: _156  and  _157
REMARK   67  A    between atoms: _162  and  _164
REMARK   68  A    between atoms: _164  and  _165
REMARK   69  A    between atoms: _164  and  _167
REMARK   70  A    between atoms: _167  and  _168
REMARK   71  A    between atoms: _171  and  _173
REMARK   72  A    between atoms: _173  and  _174
REMARK   73  A    between atoms: _173  and  _176
REMARK   74  A    between atoms: _176  and  _177
REMARK   75  A    between atoms: _182  and  _183
REMARK   76  A    between atoms: _185  and  _187
REMARK   77  A    between atoms: _187  and  _188
REMARK   78  A    between atoms: _187  and  _190
REMARK   79  A    between atoms: _190  and  _191
REMARK   80  A    between atoms: _191  and  _192
REMARK   81  A    between atoms: _197  and  _199
REMARK   82  A    between atoms: _199  and  _200
REMARK   83  A    between atoms: _199  and  _202
REMARK   84  A    between atoms: _202  and  _203
REMARK   85  A    between atoms: _208  and  _210
REMARK   86  A    between atoms: _210  and  _211
REMARK   87  A    between atoms: _210  and  _213
REMARK   88  A    between atoms: _213  and  _214
REMARK   89  A    between atoms: _217  and  _219
REMARK   90  A    between atoms: _219  and  _220
REMARK   91  A    between atoms: _219  and  _222
REMARK   92  A    between atoms: _222  and  _223
REMARK   93  A    between atoms: _223  and  _224
REMARK   94  A    between atoms: _227  and  _229
REMARK   95  A    between atoms: _229  and  _230
REMARK   96  A    between atoms: _229  and  _232
REMARK   97  A    between atoms: _232  and  _233
REMARK   98  A    between atoms: _236  and  _238
REMARK   99  A    between atoms: _238  and  _239
REMARK  100  A    between atoms: _238  and  _241
REMARK  101  A    between atoms: _241  and  _242
REMARK  102  A    between atoms: _252  and  _254
REMARK  103  A    between atoms: _254  and  _255
REMARK  104  A    between atoms: _257  and  _259
REMARK  105  A    between atoms: _259  and  _260
REMARK  106  A    between atoms: _259  and  _262
REMARK  107  A    between atoms: _262  and  _263
REMARK  108  A    between atoms: _268  and  _269
REMARK  109  A    between atoms: _271  and  _273
REMARK  110  A    between atoms: _273  and  _274
REMARK  111  A    between atoms: _273  and  _276
REMARK  112  A    between atoms: _276  and  _277
REMARK  113  A    between atoms: _279  and  _281
REMARK  114  A    between atoms: _281  and  _282
REMARK  115  A    between atoms: _281  and  _284
REMARK  116  A    between atoms: _284  and  _285
REMARK  117  A    between atoms: _295  and  _297
REMARK  118  A    between atoms: _297  and  _298
REMARK  119  A    between atoms: _297  and  _300
REMARK  120  A    between atoms: _303  and  _305
REMARK  121  A    between atoms: _305  and  _306
REMARK  122  A    between atoms: _305  and  _308
REMARK  123  A    between atoms: _308  and  _309
REMARK  124  A    between atoms: _312  and  _314
REMARK  125  A    between atoms: _314  and  _315
REMARK  126  A    between atoms: _314  and  _317
REMARK  127  A    between atoms: _320  and  _322
REMARK  128  A    between atoms: _322  and  _323
REMARK  129  A    between atoms: _322  and  _325
REMARK  130  A    between atoms: _325  and  _326
REMARK                            x       y       z     vdW  Elec       q    Type
REMARK                         _______ _______ _______ _____ _____    ______ ____
ROOT
ATOM      1  O   HOH     1      27.182  67.018  41.774  0.00  0.00    +0.000 OA
ENDROOT
TORSDOF 0
REMARK  Name = ../refined-set-2016/1j01/1j01_pocket.pdb
REMARK  130 active torsions:
REMARK  status: ('A' for Active; 'I' for Inactive)
REMARK    1  A    between atoms: _1  and  _3
REMARK    2  A    between atoms: _3  and  _4
REMARK    3  A    between atoms: _7  and  _9
REMARK    4  A    between atoms: _9  and  _10
REMARK    5  A    between atoms: _9  and  _12
REMARK    6  A    between atoms: _12  and  _13
REMARK    7  A    between atoms: _16  and  _18
REMARK    8  A    between atoms: _18  and  _19
REMARK    9  A    between atoms: _22  and  _24
REMARK   10  A    between atoms: _24  and  _25
REMARK   11  A    between atoms: _24  and  _27
REMARK   12  A    between atoms: _27  and  _28
REMARK   13  A    between atoms: _28  and  _29
REMARK   14  A    between atoms: _32  and  _34
REMARK   15  A    between atoms: _34  and  _35
REMARK   16  A    between atoms: _34  and  _37
REMARK   17  A    between atoms: _37  and  _38
REMARK   18  A    between atoms: _43  and  _45
REMARK   19  A    between atoms: _45  and  _46
REMARK   20  A    between atoms: _45  and  _48
REMARK   21  A    between atoms: _48  and  _49
REMARK   22  A    between atoms: _49  and  _50
REMARK   23  A    between atoms: _50  and  _51
REMARK   24  A    between atoms: _51  and  _52
REMARK   25  A    between atoms: _56  and  _58
REMARK   26  A    between atoms: _58  and  _59
REMARK   27  A    between atoms: _58  and  _61
REMARK   28  A    between atoms: _61  and  _62
REMARK   29  A    between atoms: _65  and  _67
REMARK   30  A    between atoms: _67  and  _68
REMARK   31  A    between atoms: _67  and  _70
REMARK   32  A    between atoms: _70  and  _71
REMARK   33  A    between atoms: _76  and  _78
REMARK   34  A    between atoms: _78  and  _79
REMARK   35  A    between atoms: _78  and  _81
REMARK   36  A    between atoms: _81  and  _82
REMARK   37  A    between atoms: _85  and  _87
REMARK   38  A    between atoms: _87  and  _88
REMARK   39  A    between atoms: _87  and  _90
REMARK   40  A    between atoms: _90  and  _91
REMARK   41  A    between atoms: _101  and  _103
REMARK   42  A    between atoms: _103  and  _104
REMARK   43  A    between atoms: _103  and  _106
REMARK   44  A    between atoms: _106  and  _107
REMARK   45  A    between atoms: _109  and  _111
REMARK   46  A    between atoms: _111  and  _112
REMARK   47  A    between atoms: _111  and  _114
REMARK   48  A    between atoms: _114  and  _115
REMARK   49  A    between atoms: _115  and  _116
REMARK   50  A    between atoms: _121  and  _123
REMARK   51  A    between atoms: _123  and  _124
REMARK   52  A    between atoms: _123  and  _126
REMARK   53  A    between atoms: _126  and  _127
REMARK   54  A    between atoms: _130  and  _132
REMARK   55  A    between atoms: _132  and  _133
REMARK   56  A    between atoms: _132  and  _135
REMARK   57  A    between atoms: _135  and  _136
REMARK   58  A    between atoms: _141  and  _143
REMARK   59  A    between atoms: _143  and  _144
REMARK   60  A    between atoms: _143  and  _146
REMARK   61  A    between atoms: _146  and  _147
REMARK   62  A    between atoms: _147  and  _148
REMARK   63  A    between atoms: _151  and  _153
REMARK   64  A    between atoms: _153  and  _154
REMARK   65  A    between atoms: _153  and  _156
REMARK   66  A    between atoms: _156  and  _157
REMARK   67  A    between atoms: _162  and  _164
REMARK   68  A    between atoms: _164  and  _165
REMARK   69  A    between atoms: _164  and  _167
REMARK   70  A    between atoms: _167  and  _168
REMARK   71  A    between atoms: _171  and  _173
REMARK   72  A    between atoms: _173  and  _174
REMARK   73  A    between atoms: _173  and  _176
REMARK   74  A    between atoms: _176  and  _177
REMARK   75  A    between atoms: _182  and  _183
REMARK   76  A    between atoms: _185  and  _187
REMARK   77  A    between atoms: _187  and  _188
REMARK   78  A    between atoms: _187  and  _190
REMARK   79  A    between atoms: _190  and  _191
REMARK   80  A    between atoms: _191  and  _192
REMARK   81  A    between atoms: _197  and  _199
REMARK   82  A    between atoms: _199  and  _200
REMARK   83  A    between atoms: _199  and  _202
REMARK   84  A    between atoms: _202  and  _203
REMARK   85  A    between atoms: _208  and  _210
REMARK   86  A    between atoms: _210  and  _211
REMARK   87  A    between atoms: _210  and  _213
REMARK   88  A    between atoms: _213  and  _214
REMARK   89  A    between atoms: _217  and  _219
REMARK   90  A    between atoms: _219  and  _220
REMARK   91  A    between atoms: _219  and  _222
REMARK   92  A    between atoms: _222  and  _223
REMARK   93  A    between atoms: _223  and  _224
REMARK   94  A    between atoms: _227  and  _229
REMARK   95  A    between atoms: _229  and  _230
REMARK   96  A    between atoms: _229  and  _232
REMARK   97  A    between atoms: _232  and  _233
REMARK   98  A    between atoms: _236  and  _238
REMARK   99  A    between atoms: _238  and  _239
REMARK  100  A    between atoms: _238  and  _241
REMARK  101  A    between atoms: _241  and  _242
REMARK  102  A    between atoms: _252  and  _254
REMARK  103  A    between atoms: _254  and  _255
REMARK  104  A    between atoms: _257  and  _259
REMARK  105  A    between atoms: _259  and  _260
REMARK  106  A    between atoms: _259  and  _262
REMARK  107  A    between atoms: _262  and  _263
REMARK  108  A    between atoms: _268  and  _269
REMARK  109  A    between atoms: _271  and  _273
REMARK  110  A    between atoms: _273  and  _274
REMARK  111  A    between atoms: _273  and  _276
REMARK  112  A    between atoms: _276  and  _277
REMARK  113  A    between atoms: _279  and  _281
REMARK  114  A    between atoms: _281  and  _282
REMARK  115  A    between atoms: _281  and  _284
REMARK  116  A    between atoms: _284  and  _285
REMARK  117  A    between atoms: _295  and  _297
REMARK  118  A    between atoms: _297  and  _298
REMARK  119  A    between atoms: _297  and  _300
REMARK  120  A    between atoms: _303  and  _305
REMARK  121  A    between atoms: _305  and  _306
REMARK  122  A    between atoms: _305  and  _308
REMARK  123  A    between atoms: _308  and  _309
REMARK  124  A    between atoms: _312  and  _314
REMARK  125  A    between atoms: _314  and  _315
REMARK  126  A    between atoms: _314  and  _317
REMARK  127  A    between atoms: _320  and  _322
REMARK  128  A    between atoms: _322  and  _323
REMARK  129  A    between atoms: _322  and  _325
REMARK  130  A    between atoms: _325  and  _326
REMARK                            x       y       z     vdW  Elec       q    Type
REMARK                         _______ _______ _______ _____ _____    ______ ____
ROOT
ATOM      1  O   HOH     1      18.345  64.973  47.746  0.00  0.00    +0.000 OA
ENDROOT
TORSDOF 0
REMARK  Name = ../refined-set-2016/1j01/1j01_pocket.pdb
REMARK  130 active torsions:
REMARK  status: ('A' for Active; 'I' for Inactive)
REMARK    1  A    between atoms: _1  and  _3
REMARK    2  A    between atoms: _3  and  _4
REMARK    3  A    between atoms: _7  and  _9
REMARK    4  A    between atoms: _9  and  _10
REMARK    5  A    between atoms: _9  and  _12
REMARK    6  A    between atoms: _12  and  _13
REMARK    7  A    between atoms: _16  and  _18
REMARK    8  A    between atoms: _18  and  _19
REMARK    9  A    between atoms: _22  and  _24
REMARK   10  A    between atoms: _24  and  _25
REMARK   11  A    between atoms: _24  and  _27
REMARK   12  A    between atoms: _27  and  _28
REMARK   13  A    between atoms: _28  and  _29
REMARK   14  A    between atoms: _32  and  _34
REMARK   15  A    between atoms: _34  and  _35
REMARK   16  A    between atoms: _34  and  _37
REMARK   17  A    between atoms: _37  and  _38
REMARK   18  A    between atoms: _43  and  _45
REMARK   19  A    between atoms: _45  and  _46
REMARK   20  A    between atoms: _45  and  _48
REMARK   21  A    between atoms: _48  and  _49
REMARK   22  A    between atoms: _49  and  _50
REMARK   23  A    between atoms: _50  and  _51
REMARK   24  A    between atoms: _51  and  _52
REMARK   25  A    between atoms: _56  and  _58
REMARK   26  A    between atoms: _58  and  _59
REMARK   27  A    between atoms: _58  and  _61
REMARK   28  A    between atoms: _61  and  _62
REMARK   29  A    between atoms: _65  and  _67
REMARK   30  A    between atoms: _67  and  _68
REMARK   31  A    between atoms: _67  and  _70
REMARK   32  A    between atoms: _70  and  _71
REMARK   33  A    between atoms: _76  and  _78
REMARK   34  A    between atoms: _78  and  _79
REMARK   35  A    between atoms: _78  and  _81
REMARK   36  A    between atoms: _81  and  _82
REMARK   37  A    between atoms: _85  and  _87
REMARK   38  A    between atoms: _87  and  _88
REMARK   39  A    between atoms: _87  and  _90
REMARK   40  A    between atoms: _90  and  _91
REMARK   41  A    between atoms: _101  and  _103
REMARK   42  A    between atoms: _103  and  _104
REMARK   43  A    between atoms: _103  and  _106
REMARK   44  A    between atoms: _106  and  _107
REMARK   45  A    between atoms: _109  and  _111
REMARK   46  A    between atoms: _111  and  _112
REMARK   47  A    between atoms: _111  and  _114
REMARK   48  A    between atoms: _114  and  _115
REMARK   49  A    between atoms: _115  and  _116
REMARK   50  A    between atoms: _121  and  _123
REMARK   51  A    between atoms: _123  and  _124
REMARK   52  A    between atoms: _123  and  _126
REMARK   53  A    between atoms: _126  and  _127
REMARK   54  A    between atoms: _130  and  _132
REMARK   55  A    between atoms: _132  and  _133
REMARK   56  A    between atoms: _132  and  _135
REMARK   57  A    between atoms: _135  and  _136
REMARK   58  A    between atoms: _141  and  _143
REMARK   59  A    between atoms: _143  and  _144
REMARK   60  A    between atoms: _143  and  _146
REMARK   61  A    between atoms: _146  and  _147
REMARK   62  A    between atoms: _147  and  _148
REMARK   63  A    between atoms: _151  and  _153
REMARK   64  A    between atoms: _153  and  _154
REMARK   65  A    between atoms: _153  and  _156
REMARK   66  A    between atoms: _156  and  _157
REMARK   67  A    between atoms: _162  and  _164
REMARK   68  A    between atoms: _164  and  _165
REMARK   69  A    between atoms: _164  and  _167
REMARK   70  A    between atoms: _167  and  _168
REMARK   71  A    between atoms: _171  and  _173
REMARK   72  A    between atoms: _173  and  _174
REMARK   73  A    between atoms: _173  and  _176
REMARK   74  A    between atoms: _176  and  _177
REMARK   75  A    between atoms: _182  and  _183
REMARK   76  A    between atoms: _185  and  _187
REMARK   77  A    between atoms: _187  and  _188
REMARK   78  A    between atoms: _187  and  _190
REMARK   79  A    between atoms: _190  and  _191
REMARK   80  A    between atoms: _191  and  _192
REMARK   81  A    between atoms: _197  and  _199
REMARK   82  A    between atoms: _199  and  _200
REMARK   83  A    between atoms: _199  and  _202
REMARK   84  A    between atoms: _202  and  _203
REMARK   85  A    between atoms: _208  and  _210
REMARK   86  A    between atoms: _210  and  _211
REMARK   87  A    between atoms: _210  and  _213
REMARK   88  A    between atoms: _213  and  _214
REMARK   89  A    between atoms: _217  and  _219
REMARK   90  A    between atoms: _219  and  _220
REMARK   91  A    between atoms: _219  and  _222
REMARK   92  A    between atoms: _222  and  _223
REMARK   93  A    between atoms: _223  and  _224
REMARK   94  A    between atoms: _227  and  _229
REMARK   95  A    between atoms: _229  and  _230
REMARK   96  A    between atoms: _229  and  _232
REMARK   97  A    between atoms: _232  and  _233
REMARK   98  A    between atoms: _236  and  _238
REMARK   99  A    between atoms: _238  and  _239
REMARK  100  A    between atoms: _238  and  _241
REMARK  101  A    between atoms: _241  and  _242
REMARK  102  A    between atoms: _252  and  _254
REMARK  103  A    between atoms: _254  and  _255
REMARK  104  A    between atoms: _257  and  _259
REMARK  105  A    between atoms: _259  and  _260
REMARK  106  A    between atoms: _259  and  _262
REMARK  107  A    between atoms: _262  and  _263
REMARK  108  A    between atoms: _268  and  _269
REMARK  109  A    between atoms: _271  and  _273
REMARK  110  A    between atoms: _273  and  _274
REMARK  111  A    between atoms: _273  and  _276
REMARK  112  A    between atoms: _276  and  _277
REMARK  113  A    between atoms: _279  and  _281
REMARK  114  A    between atoms: _281  and  _282
REMARK  115  A    between atoms: _281  and  _284
REMARK  116  A    between atoms: _284  and  _285
REMARK  117  A    between atoms: _295  and  _297
REMARK  118  A    between atoms: _297  and  _298
REMARK  119  A    between atoms: _297  and  _300
REMARK  120  A    between atoms: _303  and  _305
REMARK  121  A    between atoms: _305  and  _306
REMARK  122  A    between atoms: _305  and  _308
REMARK  123  A    between atoms: _308  and  _309
REMARK  124  A    between atoms: _312  and  _314
REMARK  125  A    between atoms: _314  and  _315
REMARK  126  A    between atoms: _314  and  _317
REMARK  127  A    between atoms: _320  and  _322
REMARK  128  A    between atoms: _322  and  _323
REMARK  129  A    between atoms: _322  and  _325
REMARK  130  A    between atoms: _325  and  _326
REMARK                            x       y       z     vdW  Elec       q    Type
REMARK                         _______ _______ _______ _____ _____    ______ ____
ROOT
ATOM      1  O   HOH     1      18.153  58.612  44.284  0.00  0.00    +0.000 OA
ENDROOT
TORSDOF 0
REMARK  Name = ../refined-set-2016/1j01/1j01_pocket.pdb
REMARK  130 active torsions:
REMARK  status: ('A' for Active; 'I' for Inactive)
REMARK    1  A    between atoms: _1  and  _3
REMARK    2  A    between atoms: _3  and  _4
REMARK    3  A    between atoms: _7  and  _9
REMARK    4  A    between atoms: _9  and  _10
REMARK    5  A    between atoms: _9  and  _12
REMARK    6  A    between atoms: _12  and  _13
REMARK    7  A    between atoms: _16  and  _18
REMARK    8  A    between atoms: _18  and  _19
REMARK    9  A    between atoms: _22  and  _24
REMARK   10  A    between atoms: _24  and  _25
REMARK   11  A    between atoms: _24  and  _27
REMARK   12  A    between atoms: _27  and  _28
REMARK   13  A    between atoms: _28  and  _29
REMARK   14  A    between atoms: _32  and  _34
REMARK   15  A    between atoms: _34  and  _35
REMARK   16  A    between atoms: _34  and  _37
REMARK   17  A    between atoms: _37  and  _38
REMARK   18  A    between atoms: _43  and  _45
REMARK   19  A    between atoms: _45  and  _46
REMARK   20  A    between atoms: _45  and  _48
REMARK   21  A    between atoms: _48  and  _49
REMARK   22  A    between atoms: _49  and  _50
REMARK   23  A    between atoms: _50  and  _51
REMARK   24  A    between atoms: _51  and  _52
REMARK   25  A    between atoms: _56  and  _58
REMARK   26  A    between atoms: _58  and  _59
REMARK   27  A    between atoms: _58  and  _61
REMARK   28  A    between atoms: _61  and  _62
REMARK   29  A    between atoms: _65  and  _67
REMARK   30  A    between atoms: _67  and  _68
REMARK   31  A    between atoms: _67  and  _70
REMARK   32  A    between atoms: _70  and  _71
REMARK   33  A    between atoms: _76  and  _78
REMARK   34  A    between atoms: _78  and  _79
REMARK   35  A    between atoms: _78  and  _81
REMARK   36  A    between atoms: _81  and  _82
REMARK   37  A    between atoms: _85  and  _87
REMARK   38  A    between atoms: _87  and  _88
REMARK   39  A    between atoms: _87  and  _90
REMARK   40  A    between atoms: _90  and  _91
REMARK   41  A    between atoms: _101  and  _103
REMARK   42  A    between atoms: _103  and  _104
REMARK   43  A    between atoms: _103  and  _106
REMARK   44  A    between atoms: _106  and  _107
REMARK   45  A    between atoms: _109  and  _111
REMARK   46  A    between atoms: _111  and  _112
REMARK   47  A    between atoms: _111  and  _114
REMARK   48  A    between atoms: _114  and  _115
REMARK   49  A    between atoms: _115  and  _116
REMARK   50  A    between atoms: _121  and  _123
REMARK   51  A    between atoms: _123  and  _124
REMARK   52  A    between atoms: _123  and  _126
REMARK   53  A    between atoms: _126  and  _127
REMARK   54  A    between atoms: _130  and  _132
REMARK   55  A    between atoms: _132  and  _133
REMARK   56  A    between atoms: _132  and  _135
REMARK   57  A    between atoms: _135  and  _136
REMARK   58  A    between atoms: _141  and  _143
REMARK   59  A    between atoms: _143  and  _144
REMARK   60  A    between atoms: _143  and  _146
REMARK   61  A    between atoms: _146  and  _147
REMARK   62  A    between atoms: _147  and  _148
REMARK   63  A    between atoms: _151  and  _153
REMARK   64  A    between atoms: _153  and  _154
REMARK   65  A    between atoms: _153  and  _156
REMARK   66  A    between atoms: _156  and  _157
REMARK   67  A    between atoms: _162  and  _164
REMARK   68  A    between atoms: _164  and  _165
REMARK   69  A    between atoms: _164  and  _167
REMARK   70  A    between atoms: _167  and  _168
REMARK   71  A    between atoms: _171  and  _173
REMARK   72  A    between atoms: _173  and  _174
REMARK   73  A    between atoms: _173  and  _176
REMARK   74  A    between atoms: _176  and  _177
REMARK   75  A    between atoms: _182  and  _183
REMARK   76  A    between atoms: _185  and  _187
REMARK   77  A    between atoms: _187  and  _188
REMARK   78  A    between atoms: _187  and  _190
REMARK   79  A    between atoms: _190  and  _191
REMARK   80  A    between atoms: _191  and  _192
REMARK   81  A    between atoms: _197  and  _199
REMARK   82  A    between atoms: _199  and  _200
REMARK   83  A    between atoms: _199  and  _202
REMARK   84  A    between atoms: _202  and  _203
REMARK   85  A    between atoms: _208  and  _210
REMARK   86  A    between atoms: _210  and  _211
REMARK   87  A    between atoms: _210  and  _213
REMARK   88  A    between atoms: _213  and  _214
REMARK   89  A    between atoms: _217  and  _219
REMARK   90  A    between atoms: _219  and  _220
REMARK   91  A    between atoms: _219  and  _222
REMARK   92  A    between atoms: _222  and  _223
REMARK   93  A    between atoms: _223  and  _224
REMARK   94  A    between atoms: _227  and  _229
REMARK   95  A    between atoms: _229  and  _230
REMARK   96  A    between atoms: _229  and  _232
REMARK   97  A    between atoms: _232  and  _233
REMARK   98  A    between atoms: _236  and  _238
REMARK   99  A    between atoms: _238  and  _239
REMARK  100  A    between atoms: _238  and  _241
REMARK  101  A    between atoms: _241  and  _242
REMARK  102  A    between atoms: _252  and  _254
REMARK  103  A    between atoms: _254  and  _255
REMARK  104  A    between atoms: _257  and  _259
REMARK  105  A    between atoms: _259  and  _260
REMARK  106  A    between atoms: _259  and  _262
REMARK  107  A    between atoms: _262  and  _263
REMARK  108  A    between atoms: _268  and  _269
REMARK  109  A    between atoms: _271  and  _273
REMARK  110  A    between atoms: _273  and  _274
REMARK  111  A    between atoms: _273  and  _276
REMARK  112  A    between atoms: _276  and  _277
REMARK  113  A    between atoms: _279  and  _281
REMARK  114  A    between atoms: _281  and  _282
REMARK  115  A    between atoms: _281  and  _284
REMARK  116  A    between atoms: _284  and  _285
REMARK  117  A    between atoms: _295  and  _297
REMARK  118  A    between atoms: _297  and  _298
REMARK  119  A    between atoms: _297  and  _300
REMARK  120  A    between atoms: _303  and  _305
REMARK  121  A    between atoms: _305  and  _306
REMARK  122  A    between atoms: _305  and  _308
REMARK  123  A    between atoms: _308  and  _309
REMARK  124  A    between atoms: _312  and  _314
REMARK  125  A    between atoms: _314  and  _315
REMARK  126  A    between atoms: _314  and  _317
REMARK  127  A    between atoms: _320  and  _322
REMARK  128  A    between atoms: _322  and  _323
REMARK  129  A    between atoms: _322  and  _325
REMARK  130  A    between atoms: _325  and  _326
REMARK                            x       y       z     vdW  Elec       q    Type
REMARK                         _______ _______ _______ _____ _____    ______ ____
ROOT
ATOM      1  O   HOH     1      16.239  59.450  41.186  0.00  0.00    +0.000 OA
ENDROOT
TORSDOF 0
REMARK  Name = ../refined-set-2016/1j01/1j01_pocket.pdb
REMARK  130 active torsions:
REMARK  status: ('A' for Active; 'I' for Inactive)
REMARK    1  A    between atoms: _1  and  _3
REMARK    2  A    between atoms: _3  and  _4
REMARK    3  A    between atoms: _7  and  _9
REMARK    4  A    between atoms: _9  and  _10
REMARK    5  A    between atoms: _9  and  _12
REMARK    6  A    between atoms: _12  and  _13
REMARK    7  A    between atoms: _16  and  _18
REMARK    8  A    between atoms: _18  and  _19
REMARK    9  A    between atoms: _22  and  _24
REMARK   10  A    between atoms: _24  and  _25
REMARK   11  A    between atoms: _24  and  _27
REMARK   12  A    between atoms: _27  and  _28
REMARK   13  A    between atoms: _28  and  _29
REMARK   14  A    between atoms: _32  and  _34
REMARK   15  A    between atoms: _34  and  _35
REMARK   16  A    between atoms: _34  and  _37
REMARK   17  A    between atoms: _37  and  _38
REMARK   18  A    between atoms: _43  and  _45
REMARK   19  A    between atoms: _45  and  _46
REMARK   20  A    between atoms: _45  and  _48
REMARK   21  A    between atoms: _48  and  _49
REMARK   22  A    between atoms: _49  and  _50
REMARK   23  A    between atoms: _50  and  _51
REMARK   24  A    between atoms: _51  and  _52
REMARK   25  A    between atoms: _56  and  _58
REMARK   26  A    between atoms: _58  and  _59
REMARK   27  A    between atoms: _58  and  _61
REMARK   28  A    between atoms: _61  and  _62
REMARK   29  A    between atoms: _65  and  _67
REMARK   30  A    between atoms: _67  and  _68
REMARK   31  A    between atoms: _67  and  _70
REMARK   32  A    between atoms: _70  and  _71
REMARK   33  A    between atoms: _76  and  _78
REMARK   34  A    between atoms: _78  and  _79
REMARK   35  A    between atoms: _78  and  _81
REMARK   36  A    between atoms: _81  and  _82
REMARK   37  A    between atoms: _85  and  _87
REMARK   38  A    between atoms: _87  and  _88
REMARK   39  A    between atoms: _87  and  _90
REMARK   40  A    between atoms: _90  and  _91
REMARK   41  A    between atoms: _101  and  _103
REMARK   42  A    between atoms: _103  and  _104
REMARK   43  A    between atoms: _103  and  _106
REMARK   44  A    between atoms: _106  and  _107
REMARK   45  A    between atoms: _109  and  _111
REMARK   46  A    between atoms: _111  and  _112
REMARK   47  A    between atoms: _111  and  _114
REMARK   48  A    between atoms: _114  and  _115
REMARK   49  A    between atoms: _115  and  _116
REMARK   50  A    between atoms: _121  and  _123
REMARK   51  A    between atoms: _123  and  _124
REMARK   52  A    between atoms: _123  and  _126
REMARK   53  A    between atoms: _126  and  _127
REMARK   54  A    between atoms: _130  and  _132
REMARK   55  A    between atoms: _132  and  _133
REMARK   56  A    between atoms: _132  and  _135
REMARK   57  A    between atoms: _135  and  _136
REMARK   58  A    between atoms: _141  and  _143
REMARK   59  A    between atoms: _143  and  _144
REMARK   60  A    between atoms: _143  and  _146
REMARK   61  A    between atoms: _146  and  _147
REMARK   62  A    between atoms: _147  and  _148
REMARK   63  A    between atoms: _151  and  _153
REMARK   64  A    between atoms: _153  and  _154
REMARK   65  A    between atoms: _153  and  _156
REMARK   66  A    between atoms: _156  and  _157
REMARK   67  A    between atoms: _162  and  _164
REMARK   68  A    between atoms: _164  and  _165
REMARK   69  A    between atoms: _164  and  _167
REMARK   70  A    between atoms: _167  and  _168
REMARK   71  A    between atoms: _171  and  _173
REMARK   72  A    between atoms: _173  and  _174
REMARK   73  A    between atoms: _173  and  _176
REMARK   74  A    between atoms: _176  and  _177
REMARK   75  A    between atoms: _182  and  _183
REMARK   76  A    between atoms: _185  and  _187
REMARK   77  A    between atoms: _187  and  _188
REMARK   78  A    between atoms: _187  and  _190
REMARK   79  A    between atoms: _190  and  _191
REMARK   80  A    between atoms: _191  and  _192
REMARK   81  A    between atoms: _197  and  _199
REMARK   82  A    between atoms: _199  and  _200
REMARK   83  A    between atoms: _199  and  _202
REMARK   84  A    between atoms: _202  and  _203
REMARK   85  A    between atoms: _208  and  _210
REMARK   86  A    between atoms: _210  and  _211
REMARK   87  A    between atoms: _210  and  _213
REMARK   88  A    between atoms: _213  and  _214
REMARK   89  A    between atoms: _217  and  _219
REMARK   90  A    between atoms: _219  and  _220
REMARK   91  A    between atoms: _219  and  _222
REMARK   92  A    between atoms: _222  and  _223
REMARK   93  A    between atoms: _223  and  _224
REMARK   94  A    between atoms: _227  and  _229
REMARK   95  A    between atoms: _229  and  _230
REMARK   96  A    between atoms: _229  and  _232
REMARK   97  A    between atoms: _232  and  _233
REMARK   98  A    between atoms: _236  and  _238
REMARK   99  A    between atoms: _238  and  _239
REMARK  100  A    between atoms: _238  and  _241
REMARK  101  A    between atoms: _241  and  _242
REMARK  102  A    between atoms: _252  and  _254
REMARK  103  A    between atoms: _254  and  _255
REMARK  104  A    between atoms: _257  and  _259
REMARK  105  A    between atoms: _259  and  _260
REMARK  106  A    between atoms: _259  and  _262
REMARK  107  A    between atoms: _262  and  _263
REMARK  108  A    between atoms: _268  and  _269
REMARK  109  A    between atoms: _271  and  _273
REMARK  110  A    between atoms: _273  and  _274
REMARK  111  A    between atoms: _273  and  _276
REMARK  112  A    between atoms: _276  and  _277
REMARK  113  A    between atoms: _279  and  _281
REMARK  114  A    between atoms: _281  and  _282
REMARK  115  A    between atoms: _281  and  _284
REMARK  116  A    between atoms: _284  and  _285
REMARK  117  A    between atoms: _295  and  _297
REMARK  118  A    between atoms: _297  and  _298
REMARK  119  A    between atoms: _297  and  _300
REMARK  120  A    between atoms: _303  and  _305
REMARK  121  A    between atoms: _305  and  _306
REMARK  122  A    between atoms: _305  and  _308
REMARK  123  A    between atoms: _308  and  _309
REMARK  124  A    between atoms: _312  and  _314
REMARK  125  A    between atoms: _314  and  _315
REMARK  126  A    between atoms: _314  and  _317
REMARK  127  A    between atoms: _320  and  _322
REMARK  128  A    between atoms: _322  and  _323
REMARK  129  A    between atoms: _322  and  _325
REMARK  130  A    between atoms: _325  and  _326
REMARK                            x       y       z     vdW  Elec       q    Type
REMARK                         _______ _______ _______ _____ _____    ______ ____
ROOT
ATOM      1  O   HOH     1      19.483  69.192  45.534  0.00  0.00    +0.000 OA
ENDROOT
TORSDOF 0
REMARK  Name = ../refined-set-2016/1j01/1j01_pocket.pdb
REMARK  130 active torsions:
REMARK  status: ('A' for Active; 'I' for Inactive)
REMARK    1  A    between atoms: _1  and  _3
REMARK    2  A    between atoms: _3  and  _4
REMARK    3  A    between atoms: _7  and  _9
REMARK    4  A    between atoms: _9  and  _10
REMARK    5  A    between atoms: _9  and  _12
REMARK    6  A    between atoms: _12  and  _13
REMARK    7  A    between atoms: _16  and  _18
REMARK    8  A    between atoms: _18  and  _19
REMARK    9  A    between atoms: _22  and  _24
REMARK   10  A    between atoms: _24  and  _25
REMARK   11  A    between atoms: _24  and  _27
REMARK   12  A    between atoms: _27  and  _28
REMARK   13  A    between atoms: _28  and  _29
REMARK   14  A    between atoms: _32  and  _34
REMARK   15  A    between atoms: _34  and  _35
REMARK   16  A    between atoms: _34  and  _37
REMARK   17  A    between atoms: _37  and  _38
REMARK   18  A    between atoms: _43  and  _45
REMARK   19  A    between atoms: _45  and  _46
REMARK   20  A    between atoms: _45  and  _48
REMARK   21  A    between atoms: _48  and  _49
REMARK   22  A    between atoms: _49  and  _50
REMARK   23  A    between atoms: _50  and  _51
REMARK   24  A    between atoms: _51  and  _52
REMARK   25  A    between atoms: _56  and  _58
REMARK   26  A    between atoms: _58  and  _59
REMARK   27  A    between atoms: _58  and  _61
REMARK   28  A    between atoms: _61  and  _62
REMARK   29  A    between atoms: _65  and  _67
REMARK   30  A    between atoms: _67  and  _68
REMARK   31  A    between atoms: _67  and  _70
REMARK   32  A    between atoms: _70  and  _71
REMARK   33  A    between atoms: _76  and  _78
REMARK   34  A    between atoms: _78  and  _79
REMARK   35  A    between atoms: _78  and  _81
REMARK   36  A    between atoms: _81  and  _82
REMARK   37  A    between atoms: _85  and  _87
REMARK   38  A    between atoms: _87  and  _88
REMARK   39  A    between atoms: _87  and  _90
REMARK   40  A    between atoms: _90  and  _91
REMARK   41  A    between atoms: _101  and  _103
REMARK   42  A    between atoms: _103  and  _104
REMARK   43  A    between atoms: _103  and  _106
REMARK   44  A    between atoms: _106  and  _107
REMARK   45  A    between atoms: _109  and  _111
REMARK   46  A    between atoms: _111  and  _112
REMARK   47  A    between atoms: _111  and  _114
REMARK   48  A    between atoms: _114  and  _115
REMARK   49  A    between atoms: _115  and  _116
REMARK   50  A    between atoms: _121  and  _123
REMARK   51  A    between atoms: _123  and  _124
REMARK   52  A    between atoms: _123  and  _126
REMARK   53  A    between atoms: _126  and  _127
REMARK   54  A    between atoms: _130  and  _132
REMARK   55  A    between atoms: _132  and  _133
REMARK   56  A    between atoms: _132  and  _135
REMARK   57  A    between atoms: _135  and  _136
REMARK   58  A    between atoms: _141  and  _143
REMARK   59  A    between atoms: _143  and  _144
REMARK   60  A    between atoms: _143  and  _146
REMARK   61  A    between atoms: _146  and  _147
REMARK   62  A    between atoms: _147  and  _148
REMARK   63  A    between atoms: _151  and  _153
REMARK   64  A    between atoms: _153  and  _154
REMARK   65  A    between atoms: _153  and  _156
REMARK   66  A    between atoms: _156  and  _157
REMARK   67  A    between atoms: _162  and  _164
REMARK   68  A    between atoms: _164  and  _165
REMARK   69  A    between atoms: _164  and  _167
REMARK   70  A    between atoms: _167  and  _168
REMARK   71  A    between atoms: _171  and  _173
REMARK   72  A    between atoms: _173  and  _174
REMARK   73  A    between atoms: _173  and  _176
REMARK   74  A    between atoms: _176  and  _177
REMARK   75  A    between atoms: _182  and  _183
REMARK   76  A    between atoms: _185  and  _187
REMARK   77  A    between atoms: _187  and  _188
REMARK   78  A    between atoms: _187  and  _190
REMARK   79  A    between atoms: _190  and  _191
REMARK   80  A    between atoms: _191  and  _192
REMARK   81  A    between atoms: _197  and  _199
REMARK   82  A    between atoms: _199  and  _200
REMARK   83  A    between atoms: _199  and  _202
REMARK   84  A    between atoms: _202  and  _203
REMARK   85  A    between atoms: _208  and  _210
REMARK   86  A    between atoms: _210  and  _211
REMARK   87  A    between atoms: _210  and  _213
REMARK   88  A    between atoms: _213  and  _214
REMARK   89  A    between atoms: _217  and  _219
REMARK   90  A    between atoms: _219  and  _220
REMARK   91  A    between atoms: _219  and  _222
REMARK   92  A    between atoms: _222  and  _223
REMARK   93  A    between atoms: _223  and  _224
REMARK   94  A    between atoms: _227  and  _229
REMARK   95  A    between atoms: _229  and  _230
REMARK   96  A    between atoms: _229  and  _232
REMARK   97  A    between atoms: _232  and  _233
REMARK   98  A    between atoms: _236  and  _238
REMARK   99  A    between atoms: _238  and  _239
REMARK  100  A    between atoms: _238  and  _241
REMARK  101  A    between atoms: _241  and  _242
REMARK  102  A    between atoms: _252  and  _254
REMARK  103  A    between atoms: _254  and  _255
REMARK  104  A    between atoms: _257  and  _259
REMARK  105  A    between atoms: _259  and  _260
REMARK  106  A    between atoms: _259  and  _262
REMARK  107  A    between atoms: _262  and  _263
REMARK  108  A    between atoms: _268  and  _269
REMARK  109  A    between atoms: _271  and  _273
REMARK  110  A    between atoms: _273  and  _274
REMARK  111  A    between atoms: _273  and  _276
REMARK  112  A    between atoms: _276  and  _277
REMARK  113  A    between atoms: _279  and  _281
REMARK  114  A    between atoms: _281  and  _282
REMARK  115  A    between atoms: _281  and  _284
REMARK  116  A    between atoms: _284  and  _285
REMARK  117  A    between atoms: _295  and  _297
REMARK  118  A    between atoms: _297  and  _298
REMARK  119  A    between atoms: _297  and  _300
REMARK  120  A    between atoms: _303  and  _305
REMARK  121  A    between atoms: _305  and  _306
REMARK  122  A    between atoms: _305  and  _308
REMARK  123  A    between atoms: _308  and  _309
REMARK  124  A    between atoms: _312  and  _314
REMARK  125  A    between atoms: _314  and  _315
REMARK  126  A    between atoms: _314  and  _317
REMARK  127  A    between atoms: _320  and  _322
REMARK  128  A    between atoms: _322  and  _323
REMARK  129  A    between atoms: _322  and  _325
REMARK  130  A    between atoms: _325  and  _326
REMARK                            x       y       z     vdW  Elec       q    Type
REMARK                         _______ _______ _______ _____ _____    ______ ____
ROOT
ATOM      1  O   HOH     1      11.906  67.350  46.968  0.00  0.00    +0.000 OA
ENDROOT
TORSDOF 0
REMARK  Name = ../refined-set-2016/1j01/1j01_pocket.pdb
REMARK  130 active torsions:
REMARK  status: ('A' for Active; 'I' for Inactive)
REMARK    1  A    between atoms: _1  and  _3
REMARK    2  A    between atoms: _3  and  _4
REMARK    3  A    between atoms: _7  and  _9
REMARK    4  A    between atoms: _9  and  _10
REMARK    5  A    between atoms: _9  and  _12
REMARK    6  A    between atoms: _12  and  _13
REMARK    7  A    between atoms: _16  and  _18
REMARK    8  A    between atoms: _18  and  _19
REMARK    9  A    between atoms: _22  and  _24
REMARK   10  A    between atoms: _24  and  _25
REMARK   11  A    between atoms: _24  and  _27
REMARK   12  A    between atoms: _27  and  _28
REMARK   13  A    between atoms: _28  and  _29
REMARK   14  A    between atoms: _32  and  _34
REMARK   15  A    between atoms: _34  and  _35
REMARK   16  A    between atoms: _34  and  _37
REMARK   17  A    between atoms: _37  and  _38
REMARK   18  A    between atoms: _43  and  _45
REMARK   19  A    between atoms: _45  and  _46
REMARK   20  A    between atoms: _45  and  _48
REMARK   21  A    between atoms: _48  and  _49
REMARK   22  A    between atoms: _49  and  _50
REMARK   23  A    between atoms: _50  and  _51
REMARK   24  A    between atoms: _51  and  _52
REMARK   25  A    between atoms: _56  and  _58
REMARK   26  A    between atoms: _58  and  _59
REMARK   27  A    between atoms: _58  and  _61
REMARK   28  A    between atoms: _61  and  _62
REMARK   29  A    between atoms: _65  and  _67
REMARK   30  A    between atoms: _67  and  _68
REMARK   31  A    between atoms: _67  and  _70
REMARK   32  A    between atoms: _70  and  _71
REMARK   33  A    between atoms: _76  and  _78
REMARK   34  A    between atoms: _78  and  _79
REMARK   35  A    between atoms: _78  and  _81
REMARK   36  A    between atoms: _81  and  _82
REMARK   37  A    between atoms: _85  and  _87
REMARK   38  A    between atoms: _87  and  _88
REMARK   39  A    between atoms: _87  and  _90
REMARK   40  A    between atoms: _90  and  _91
REMARK   41  A    between atoms: _101  and  _103
REMARK   42  A    between atoms: _103  and  _104
REMARK   43  A    between atoms: _103  and  _106
REMARK   44  A    between atoms: _106  and  _107
REMARK   45  A    between atoms: _109  and  _111
REMARK   46  A    between atoms: _111  and  _112
REMARK   47  A    between atoms: _111  and  _114
REMARK   48  A    between atoms: _114  and  _115
REMARK   49  A    between atoms: _115  and  _116
REMARK   50  A    between atoms: _121  and  _123
REMARK   51  A    between atoms: _123  and  _124
REMARK   52  A    between atoms: _123  and  _126
REMARK   53  A    between atoms: _126  and  _127
REMARK   54  A    between atoms: _130  and  _132
REMARK   55  A    between atoms: _132  and  _133
REMARK   56  A    between atoms: _132  and  _135
REMARK   57  A    between atoms: _135  and  _136
REMARK   58  A    between atoms: _141  and  _143
REMARK   59  A    between atoms: _143  and  _144
REMARK   60  A    between atoms: _143  and  _146
REMARK   61  A    between atoms: _146  and  _147
REMARK   62  A    between atoms: _147  and  _148
REMARK   63  A    between atoms: _151  and  _153
REMARK   64  A    between atoms: _153  and  _154
REMARK   65  A    between atoms: _153  and  _156
REMARK   66  A    between atoms: _156  and  _157
REMARK   67  A    between atoms: _162  and  _164
REMARK   68  A    between atoms: _164  and  _165
REMARK   69  A    between atoms: _164  and  _167
REMARK   70  A    between atoms: _167  and  _168
REMARK   71  A    between atoms: _171  and  _173
REMARK   72  A    between atoms: _173  and  _174
REMARK   73  A    between atoms: _173  and  _176
REMARK   74  A    between atoms: _176  and  _177
REMARK   75  A    between atoms: _182  and  _183
REMARK   76  A    between atoms: _185  and  _187
REMARK   77  A    between atoms: _187  and  _188
REMARK   78  A    between atoms: _187  and  _190
REMARK   79  A    between atoms: _190  and  _191
REMARK   80  A    between atoms: _191  and  _192
REMARK   81  A    between atoms: _197  and  _199
REMARK   82  A    between atoms: _199  and  _200
REMARK   83  A    between atoms: _199  and  _202
REMARK   84  A    between atoms: _202  and  _203
REMARK   85  A    between atoms: _208  and  _210
REMARK   86  A    between atoms: _210  and  _211
REMARK   87  A    between atoms: _210  and  _213
REMARK   88  A    between atoms: _213  and  _214
REMARK   89  A    between atoms: _217  and  _219
REMARK   90  A    between atoms: _219  and  _220
REMARK   91  A    between atoms: _219  and  _222
REMARK   92  A    between atoms: _222  and  _223
REMARK   93  A    between atoms: _223  and  _224
REMARK   94  A    between atoms: _227  and  _229
REMARK   95  A    between atoms: _229  and  _230
REMARK   96  A    between atoms: _229  and  _232
REMARK   97  A    between atoms: _232  and  _233
REMARK   98  A    between atoms: _236  and  _238
REMARK   99  A    between atoms: _238  and  _239
REMARK  100  A    between atoms: _238  and  _241
REMARK  101  A    between atoms: _241  and  _242
REMARK  102  A    between atoms: _252  and  _254
REMARK  103  A    between atoms: _254  and  _255
REMARK  104  A    between atoms: _257  and  _259
REMARK  105  A    between atoms: _259  and  _260
REMARK  106  A    between atoms: _259  and  _262
REMARK  107  A    between atoms: _262  and  _263
REMARK  108  A    between atoms: _268  and  _269
REMARK  109  A    between atoms: _271  and  _273
REMARK  110  A    between atoms: _273  and  _274
REMARK  111  A    between atoms: _273  and  _276
REMARK  112  A    between atoms: _276  and  _277
REMARK  113  A    between atoms: _279  and  _281
REMARK  114  A    between atoms: _281  and  _282
REMARK  115  A    between atoms: _281  and  _284
REMARK  116  A    between atoms: _284  and  _285
REMARK  117  A    between atoms: _295  and  _297
REMARK  118  A    between atoms: _297  and  _298
REMARK  119  A    between atoms: _297  and  _300
REMARK  120  A    between atoms: _303  and  _305
REMARK  121  A    between atoms: _305  and  _306
REMARK  122  A    between atoms: _305  and  _308
REMARK  123  A    between atoms: _308  and  _309
REMARK  124  A    between atoms: _312  and  _314
REMARK  125  A    between atoms: _314  and  _315
REMARK  126  A    between atoms: _314  and  _317
REMARK  127  A    between atoms: _320  and  _322
REMARK  128  A    between atoms: _322  and  _323
REMARK  129  A    between atoms: _322  and  _325
REMARK  130  A    between atoms: _325  and  _326
REMARK                            x       y       z     vdW  Elec       q    Type
REMARK                         _______ _______ _______ _____ _____    ______ ____
ROOT
ATOM      1  O   HOH     1      15.759  61.715  45.155  0.00  0.00    +0.000 OA
ENDROOT
TORSDOF 0
REMARK  Name = ../refined-set-2016/1j01/1j01_pocket.pdb
REMARK  130 active torsions:
REMARK  status: ('A' for Active; 'I' for Inactive)
REMARK    1  A    between atoms: _1  and  _3
REMARK    2  A    between atoms: _3  and  _4
REMARK    3  A    between atoms: _7  and  _9
REMARK    4  A    between atoms: _9  and  _10
REMARK    5  A    between atoms: _9  and  _12
REMARK    6  A    between atoms: _12  and  _13
REMARK    7  A    between atoms: _16  and  _18
REMARK    8  A    between atoms: _18  and  _19
REMARK    9  A    between atoms: _22  and  _24
REMARK   10  A    between atoms: _24  and  _25
REMARK   11  A    between atoms: _24  and  _27
REMARK   12  A    between atoms: _27  and  _28
REMARK   13  A    between atoms: _28  and  _29
REMARK   14  A    between atoms: _32  and  _34
REMARK   15  A    between atoms: _34  and  _35
REMARK   16  A    between atoms: _34  and  _37
REMARK   17  A    between atoms: _37  and  _38
REMARK   18  A    between atoms: _43  and  _45
REMARK   19  A    between atoms: _45  and  _46
REMARK   20  A    between atoms: _45  and  _48
REMARK   21  A    between atoms: _48  and  _49
REMARK   22  A    between atoms: _49  and  _50
REMARK   23  A    between atoms: _50  and  _51
REMARK   24  A    between atoms: _51  and  _52
REMARK   25  A    between atoms: _56  and  _58
REMARK   26  A    between atoms: _58  and  _59
REMARK   27  A    between atoms: _58  and  _61
REMARK   28  A    between atoms: _61  and  _62
REMARK   29  A    between atoms: _65  and  _67
REMARK   30  A    between atoms: _67  and  _68
REMARK   31  A    between atoms: _67  and  _70
REMARK   32  A    between atoms: _70  and  _71
REMARK   33  A    between atoms: _76  and  _78
REMARK   34  A    between atoms: _78  and  _79
REMARK   35  A    between atoms: _78  and  _81
REMARK   36  A    between atoms: _81  and  _82
REMARK   37  A    between atoms: _85  and  _87
REMARK   38  A    between atoms: _87  and  _88
REMARK   39  A    between atoms: _87  and  _90
REMARK   40  A    between atoms: _90  and  _91
REMARK   41  A    between atoms: _101  and  _103
REMARK   42  A    between atoms: _103  and  _104
REMARK   43  A    between atoms: _103  and  _106
REMARK   44  A    between atoms: _106  and  _107
REMARK   45  A    between atoms: _109  and  _111
REMARK   46  A    between atoms: _111  and  _112
REMARK   47  A    between atoms: _111  and  _114
REMARK   48  A    between atoms: _114  and  _115
REMARK   49  A    between atoms: _115  and  _116
REMARK   50  A    between atoms: _121  and  _123
REMARK   51  A    between atoms: _123  and  _124
REMARK   52  A    between atoms: _123  and  _126
REMARK   53  A    between atoms: _126  and  _127
REMARK   54  A    between atoms: _130  and  _132
REMARK   55  A    between atoms: _132  and  _133
REMARK   56  A    between atoms: _132  and  _135
REMARK   57  A    between atoms: _135  and  _136
REMARK   58  A    between atoms: _141  and  _143
REMARK   59  A    between atoms: _143  and  _144
REMARK   60  A    between atoms: _143  and  _146
REMARK   61  A    between atoms: _146  and  _147
REMARK   62  A    between atoms: _147  and  _148
REMARK   63  A    between atoms: _151  and  _153
REMARK   64  A    between atoms: _153  and  _154
REMARK   65  A    between atoms: _153  and  _156
REMARK   66  A    between atoms: _156  and  _157
REMARK   67  A    between atoms: _162  and  _164
REMARK   68  A    between atoms: _164  and  _165
REMARK   69  A    between atoms: _164  and  _167
REMARK   70  A    between atoms: _167  and  _168
REMARK   71  A    between atoms: _171  and  _173
REMARK   72  A    between atoms: _173  and  _174
REMARK   73  A    between atoms: _173  and  _176
REMARK   74  A    between atoms: _176  and  _177
REMARK   75  A    between atoms: _182  and  _183
REMARK   76  A    between atoms: _185  and  _187
REMARK   77  A    between atoms: _187  and  _188
REMARK   78  A    between atoms: _187  and  _190
REMARK   79  A    between atoms: _190  and  _191
REMARK   80  A    between atoms: _191  and  _192
REMARK   81  A    between atoms: _197  and  _199
REMARK   82  A    between atoms: _199  and  _200
REMARK   83  A    between atoms: _199  and  _202
REMARK   84  A    between atoms: _202  and  _203
REMARK   85  A    between atoms: _208  and  _210
REMARK   86  A    between atoms: _210  and  _211
REMARK   87  A    between atoms: _210  and  _213
REMARK   88  A    between atoms: _213  and  _214
REMARK   89  A    between atoms: _217  and  _219
REMARK   90  A    between atoms: _219  and  _220
REMARK   91  A    between atoms: _219  and  _222
REMARK   92  A    between atoms: _222  and  _223
REMARK   93  A    between atoms: _223  and  _224
REMARK   94  A    between atoms: _227  and  _229
REMARK   95  A    between atoms: _229  and  _230
REMARK   96  A    between atoms: _229  and  _232
REMARK   97  A    between atoms: _232  and  _233
REMARK   98  A    between atoms: _236  and  _238
REMARK   99  A    between atoms: _238  and  _239
REMARK  100  A    between atoms: _238  and  _241
REMARK  101  A    between atoms: _241  and  _242
REMARK  102  A    between atoms: _252  and  _254
REMARK  103  A    between atoms: _254  and  _255
REMARK  104  A    between atoms: _257  and  _259
REMARK  105  A    between atoms: _259  and  _260
REMARK  106  A    between atoms: _259  and  _262
REMARK  107  A    between atoms: _262  and  _263
REMARK  108  A    between atoms: _268  and  _269
REMARK  109  A    between atoms: _271  and  _273
REMARK  110  A    between atoms: _273  and  _274
REMARK  111  A    between atoms: _273  and  _276
REMARK  112  A    between atoms: _276  and  _277
REMARK  113  A    between atoms: _279  and  _281
REMARK  114  A    between atoms: _281  and  _282
REMARK  115  A    between atoms: _281  and  _284
REMARK  116  A    between atoms: _284  and  _285
REMARK  117  A    between atoms: _295  and  _297
REMARK  118  A    between atoms: _297  and  _298
REMARK  119  A    between atoms: _297  and  _300
REMARK  120  A    between atoms: _303  and  _305
REMARK  121  A    between atoms: _305  and  _306
REMARK  122  A    between atoms: _305  and  _308
REMARK  123  A    between atoms: _308  and  _309
REMARK  124  A    between atoms: _312  and  _314
REMARK  125  A    between atoms: _314  and  _315
REMARK  126  A    between atoms: _314  and  _317
REMARK  127  A    between atoms: _320  and  _322
REMARK  128  A    between atoms: _322  and  _323
REMARK  129  A    between atoms: _322  and  _325
REMARK  130  A    between atoms: _325  and  _326
REMARK                            x       y       z     vdW  Elec       q    Type
REMARK                         _______ _______ _______ _____ _____    ______ ____
ROOT
ATOM      1  O   HOH     1      13.769  68.953  45.078  0.00  0.00    +0.000 OA
ENDROOT
TORSDOF 0
REMARK  Name = ../refined-set-2016/1j01/1j01_pocket.pdb
REMARK  130 active torsions:
REMARK  status: ('A' for Active; 'I' for Inactive)
REMARK    1  A    between atoms: _1  and  _3
REMARK    2  A    between atoms: _3  and  _4
REMARK    3  A    between atoms: _7  and  _9
REMARK    4  A    between atoms: _9  and  _10
REMARK    5  A    between atoms: _9  and  _12
REMARK    6  A    between atoms: _12  and  _13
REMARK    7  A    between atoms: _16  and  _18
REMARK    8  A    between atoms: _18  and  _19
REMARK    9  A    between atoms: _22  and  _24
REMARK   10  A    between atoms: _24  and  _25
REMARK   11  A    between atoms: _24  and  _27
REMARK   12  A    between atoms: _27  and  _28
REMARK   13  A    between atoms: _28  and  _29
REMARK   14  A    between atoms: _32  and  _34
REMARK   15  A    between atoms: _34  and  _35
REMARK   16  A    between atoms: _34  and  _37
REMARK   17  A    between atoms: _37  and  _38
REMARK   18  A    between atoms: _43  and  _45
REMARK   19  A    between atoms: _45  and  _46
REMARK   20  A    between atoms: _45  and  _48
REMARK   21  A    between atoms: _48  and  _49
REMARK   22  A    between atoms: _49  and  _50
REMARK   23  A    between atoms: _50  and  _51
REMARK   24  A    between atoms: _51  and  _52
REMARK   25  A    between atoms: _56  and  _58
REMARK   26  A    between atoms: _58  and  _59
REMARK   27  A    between atoms: _58  and  _61
REMARK   28  A    between atoms: _61  and  _62
REMARK   29  A    between atoms: _65  and  _67
REMARK   30  A    between atoms: _67  and  _68
REMARK   31  A    between atoms: _67  and  _70
REMARK   32  A    between atoms: _70  and  _71
REMARK   33  A    between atoms: _76  and  _78
REMARK   34  A    between atoms: _78  and  _79
REMARK   35  A    between atoms: _78  and  _81
REMARK   36  A    between atoms: _81  and  _82
REMARK   37  A    between atoms: _85  and  _87
REMARK   38  A    between atoms: _87  and  _88
REMARK   39  A    between atoms: _87  and  _90
REMARK   40  A    between atoms: _90  and  _91
REMARK   41  A    between atoms: _101  and  _103
REMARK   42  A    between atoms: _103  and  _104
REMARK   43  A    between atoms: _103  and  _106
REMARK   44  A    between atoms: _106  and  _107
REMARK   45  A    between atoms: _109  and  _111
REMARK   46  A    between atoms: _111  and  _112
REMARK   47  A    between atoms: _111  and  _114
REMARK   48  A    between atoms: _114  and  _115
REMARK   49  A    between atoms: _115  and  _116
REMARK   50  A    between atoms: _121  and  _123
REMARK   51  A    between atoms: _123  and  _124
REMARK   52  A    between atoms: _123  and  _126
REMARK   53  A    between atoms: _126  and  _127
REMARK   54  A    between atoms: _130  and  _132
REMARK   55  A    between atoms: _132  and  _133
REMARK   56  A    between atoms: _132  and  _135
REMARK   57  A    between atoms: _135  and  _136
REMARK   58  A    between atoms: _141  and  _143
REMARK   59  A    between atoms: _143  and  _144
REMARK   60  A    between atoms: _143  and  _146
REMARK   61  A    between atoms: _146  and  _147
REMARK   62  A    between atoms: _147  and  _148
REMARK   63  A    between atoms: _151  and  _153
REMARK   64  A    between atoms: _153  and  _154
REMARK   65  A    between atoms: _153  and  _156
REMARK   66  A    between atoms: _156  and  _157
REMARK   67  A    between atoms: _162  and  _164
REMARK   68  A    between atoms: _164  and  _165
REMARK   69  A    between atoms: _164  and  _167
REMARK   70  A    between atoms: _167  and  _168
REMARK   71  A    between atoms: _171  and  _173
REMARK   72  A    between atoms: _173  and  _174
REMARK   73  A    between atoms: _173  and  _176
REMARK   74  A    between atoms: _176  and  _177
REMARK   75  A    between atoms: _182  and  _183
REMARK   76  A    between atoms: _185  and  _187
REMARK   77  A    between atoms: _187  and  _188
REMARK   78  A    between atoms: _187  and  _190
REMARK   79  A    between atoms: _190  and  _191
REMARK   80  A    between atoms: _191  and  _192
REMARK   81  A    between atoms: _197  and  _199
REMARK   82  A    between atoms: _199  and  _200
REMARK   83  A    between atoms: _199  and  _202
REMARK   84  A    between atoms: _202  and  _203
REMARK   85  A    between atoms: _208  and  _210
REMARK   86  A    between atoms: _210  and  _211
REMARK   87  A    between atoms: _210  and  _213
REMARK   88  A    between atoms: _213  and  _214
REMARK   89  A    between atoms: _217  and  _219
REMARK   90  A    between atoms: _219  and  _220
REMARK   91  A    between atoms: _219  and  _222
REMARK   92  A    between atoms: _222  and  _223
REMARK   93  A    between atoms: _223  and  _224
REMARK   94  A    between atoms: _227  and  _229
REMARK   95  A    between atoms: _229  and  _230
REMARK   96  A    between atoms: _229  and  _232
REMARK   97  A    between atoms: _232  and  _233
REMARK   98  A    between atoms: _236  and  _238
REMARK   99  A    between atoms: _238  and  _239
REMARK  100  A    between atoms: _238  and  _241
REMARK  101  A    between atoms: _241  and  _242
REMARK  102  A    between atoms: _252  and  _254
REMARK  103  A    between atoms: _254  and  _255
REMARK  104  A    between atoms: _257  and  _259
REMARK  105  A    between atoms: _259  and  _260
REMARK  106  A    between atoms: _259  and  _262
REMARK  107  A    between atoms: _262  and  _263
REMARK  108  A    between atoms: _268  and  _269
REMARK  109  A    between atoms: _271  and  _273
REMARK  110  A    between atoms: _273  and  _274
REMARK  111  A    between atoms: _273  and  _276
REMARK  112  A    between atoms: _276  and  _277
REMARK  113  A    between atoms: _279  and  _281
REMARK  114  A    between atoms: _281  and  _282
REMARK  115  A    between atoms: _281  and  _284
REMARK  116  A    between atoms: _284  and  _285
REMARK  117  A    between atoms: _295  and  _297
REMARK  118  A    between atoms: _297  and  _298
REMARK  119  A    between atoms: _297  and  _300
REMARK  120  A    between atoms: _303  and  _305
REMARK  121  A    between atoms: _305  and  _306
REMARK  122  A    between atoms: _305  and  _308
REMARK  123  A    between atoms: _308  and  _309
REMARK  124  A    between atoms: _312  and  _314
REMARK  125  A    between atoms: _314  and  _315
REMARK  126  A    between atoms: _314  and  _317
REMARK  127  A    between atoms: _320  and  _322
REMARK  128  A    between atoms: _322  and  _323
REMARK  129  A    between atoms: _322  and  _325
REMARK  130  A    between atoms: _325  and  _326
REMARK                            x       y       z     vdW  Elec       q    Type
REMARK                         _______ _______ _______ _____ _____    ______ ____
ROOT
ATOM      1  O   HOH     1      11.560  67.572  36.887  0.00  0.00    +0.000 OA
ENDROOT
TORSDOF 0
REMARK  Name = ../refined-set-2016/1j01/1j01_pocket.pdb
REMARK  130 active torsions:
REMARK  status: ('A' for Active; 'I' for Inactive)
REMARK    1  A    between atoms: _1  and  _3
REMARK    2  A    between atoms: _3  and  _4
REMARK    3  A    between atoms: _7  and  _9
REMARK    4  A    between atoms: _9  and  _10
REMARK    5  A    between atoms: _9  and  _12
REMARK    6  A    between atoms: _12  and  _13
REMARK    7  A    between atoms: _16  and  _18
REMARK    8  A    between atoms: _18  and  _19
REMARK    9  A    between atoms: _22  and  _24
REMARK   10  A    between atoms: _24  and  _25
REMARK   11  A    between atoms: _24  and  _27
REMARK   12  A    between atoms: _27  and  _28
REMARK   13  A    between atoms: _28  and  _29
REMARK   14  A    between atoms: _32  and  _34
REMARK   15  A    between atoms: _34  and  _35
REMARK   16  A    between atoms: _34  and  _37
REMARK   17  A    between atoms: _37  and  _38
REMARK   18  A    between atoms: _43  and  _45
REMARK   19  A    between atoms: _45  and  _46
REMARK   20  A    between atoms: _45  and  _48
REMARK   21  A    between atoms: _48  and  _49
REMARK   22  A    between atoms: _49  and  _50
REMARK   23  A    between atoms: _50  and  _51
REMARK   24  A    between atoms: _51  and  _52
REMARK   25  A    between atoms: _56  and  _58
REMARK   26  A    between atoms: _58  and  _59
REMARK   27  A    between atoms: _58  and  _61
REMARK   28  A    between atoms: _61  and  _62
REMARK   29  A    between atoms: _65  and  _67
REMARK   30  A    between atoms: _67  and  _68
REMARK   31  A    between atoms: _67  and  _70
REMARK   32  A    between atoms: _70  and  _71
REMARK   33  A    between atoms: _76  and  _78
REMARK   34  A    between atoms: _78  and  _79
REMARK   35  A    between atoms: _78  and  _81
REMARK   36  A    between atoms: _81  and  _82
REMARK   37  A    between atoms: _85  and  _87
REMARK   38  A    between atoms: _87  and  _88
REMARK   39  A    between atoms: _87  and  _90
REMARK   40  A    between atoms: _90  and  _91
REMARK   41  A    between atoms: _101  and  _103
REMARK   42  A    between atoms: _103  and  _104
REMARK   43  A    between atoms: _103  and  _106
REMARK   44  A    between atoms: _106  and  _107
REMARK   45  A    between atoms: _109  and  _111
REMARK   46  A    between atoms: _111  and  _112
REMARK   47  A    between atoms: _111  and  _114
REMARK   48  A    between atoms: _114  and  _115
REMARK   49  A    between atoms: _115  and  _116
REMARK   50  A    between atoms: _121  and  _123
REMARK   51  A    between atoms: _123  and  _124
REMARK   52  A    between atoms: _123  and  _126
REMARK   53  A    between atoms: _126  and  _127
REMARK   54  A    between atoms: _130  and  _132
REMARK   55  A    between atoms: _132  and  _133
REMARK   56  A    between atoms: _132  and  _135
REMARK   57  A    between atoms: _135  and  _136
REMARK   58  A    between atoms: _141  and  _143
REMARK   59  A    between atoms: _143  and  _144
REMARK   60  A    between atoms: _143  and  _146
REMARK   61  A    between atoms: _146  and  _147
REMARK   62  A    between atoms: _147  and  _148
REMARK   63  A    between atoms: _151  and  _153
REMARK   64  A    between atoms: _153  and  _154
REMARK   65  A    between atoms: _153  and  _156
REMARK   66  A    between atoms: _156  and  _157
REMARK   67  A    between atoms: _162  and  _164
REMARK   68  A    between atoms: _164  and  _165
REMARK   69  A    between atoms: _164  and  _167
REMARK   70  A    between atoms: _167  and  _168
REMARK   71  A    between atoms: _171  and  _173
REMARK   72  A    between atoms: _173  and  _174
REMARK   73  A    between atoms: _173  and  _176
REMARK   74  A    between atoms: _176  and  _177
REMARK   75  A    between atoms: _182  and  _183
REMARK   76  A    between atoms: _185  and  _187
REMARK   77  A    between atoms: _187  and  _188
REMARK   78  A    between atoms: _187  and  _190
REMARK   79  A    between atoms: _190  and  _191
REMARK   80  A    between atoms: _191  and  _192
REMARK   81  A    between atoms: _197  and  _199
REMARK   82  A    between atoms: _199  and  _200
REMARK   83  A    between atoms: _199  and  _202
REMARK   84  A    between atoms: _202  and  _203
REMARK   85  A    between atoms: _208  and  _210
REMARK   86  A    between atoms: _210  and  _211
REMARK   87  A    between atoms: _210  and  _213
REMARK   88  A    between atoms: _213  and  _214
REMARK   89  A    between atoms: _217  and  _219
REMARK   90  A    between atoms: _219  and  _220
REMARK   91  A    between atoms: _219  and  _222
REMARK   92  A    between atoms: _222  and  _223
REMARK   93  A    between atoms: _223  and  _224
REMARK   94  A    between atoms: _227  and  _229
REMARK   95  A    between atoms: _229  and  _230
REMARK   96  A    between atoms: _229  and  _232
REMARK   97  A    between atoms: _232  and  _233
REMARK   98  A    between atoms: _236  and  _238
REMARK   99  A    between atoms: _238  and  _239
REMARK  100  A    between atoms: _238  and  _241
REMARK  101  A    between atoms: _241  and  _242
REMARK  102  A    between atoms: _252  and  _254
REMARK  103  A    between atoms: _254  and  _255
REMARK  104  A    between atoms: _257  and  _259
REMARK  105  A    between atoms: _259  and  _260
REMARK  106  A    between atoms: _259  and  _262
REMARK  107  A    between atoms: _262  and  _263
REMARK  108  A    between atoms: _268  and  _269
REMARK  109  A    between atoms: _271  and  _273
REMARK  110  A    between atoms: _273  and  _274
REMARK  111  A    between atoms: _273  and  _276
REMARK  112  A    between atoms: _276  and  _277
REMARK  113  A    between atoms: _279  and  _281
REMARK  114  A    between atoms: _281  and  _282
REMARK  115  A    between atoms: _281  and  _284
REMARK  116  A    between atoms: _284  and  _285
REMARK  117  A    between atoms: _295  and  _297
REMARK  118  A    between atoms: _297  and  _298
REMARK  119  A    between atoms: _297  and  _300
REMARK  120  A    between atoms: _303  and  _305
REMARK  121  A    between atoms: _305  and  _306
REMARK  122  A    between atoms: _305  and  _308
REMARK  123  A    between atoms: _308  and  _309
REMARK  124  A    between atoms: _312  and  _314
REMARK  125  A    between atoms: _314  and  _315
REMARK  126  A    between atoms: _314  and  _317
REMARK  127  A    between atoms: _320  and  _322
REMARK  128  A    between atoms: _322  and  _323
REMARK  129  A    between atoms: _322  and  _325
REMARK  130  A    between atoms: _325  and  _326
REMARK                            x       y       z     vdW  Elec       q    Type
REMARK                         _______ _______ _______ _____ _____    ______ ____
ROOT
ATOM      1  O   HOH     1      21.381  58.298  37.177  0.00  0.00    +0.000 OA
ENDROOT
TORSDOF 0
REMARK  Name = ../refined-set-2016/1j01/1j01_pocket.pdb
REMARK  130 active torsions:
REMARK  status: ('A' for Active; 'I' for Inactive)
REMARK    1  A    between atoms: _1  and  _3
REMARK    2  A    between atoms: _3  and  _4
REMARK    3  A    between atoms: _7  and  _9
REMARK    4  A    between atoms: _9  and  _10
REMARK    5  A    between atoms: _9  and  _12
REMARK    6  A    between atoms: _12  and  _13
REMARK    7  A    between atoms: _16  and  _18
REMARK    8  A    between atoms: _18  and  _19
REMARK    9  A    between atoms: _22  and  _24
REMARK   10  A    between atoms: _24  and  _25
REMARK   11  A    between atoms: _24  and  _27
REMARK   12  A    between atoms: _27  and  _28
REMARK   13  A    between atoms: _28  and  _29
REMARK   14  A    between atoms: _32  and  _34
REMARK   15  A    between atoms: _34  and  _35
REMARK   16  A    between atoms: _34  and  _37
REMARK   17  A    between atoms: _37  and  _38
REMARK   18  A    between atoms: _43  and  _45
REMARK   19  A    between atoms: _45  and  _46
REMARK   20  A    between atoms: _45  and  _48
REMARK   21  A    between atoms: _48  and  _49
REMARK   22  A    between atoms: _49  and  _50
REMARK   23  A    between atoms: _50  and  _51
REMARK   24  A    between atoms: _51  and  _52
REMARK   25  A    between atoms: _56  and  _58
REMARK   26  A    between atoms: _58  and  _59
REMARK   27  A    between atoms: _58  and  _61
REMARK   28  A    between atoms: _61  and  _62
REMARK   29  A    between atoms: _65  and  _67
REMARK   30  A    between atoms: _67  and  _68
REMARK   31  A    between atoms: _67  and  _70
REMARK   32  A    between atoms: _70  and  _71
REMARK   33  A    between atoms: _76  and  _78
REMARK   34  A    between atoms: _78  and  _79
REMARK   35  A    between atoms: _78  and  _81
REMARK   36  A    between atoms: _81  and  _82
REMARK   37  A    between atoms: _85  and  _87
REMARK   38  A    between atoms: _87  and  _88
REMARK   39  A    between atoms: _87  and  _90
REMARK   40  A    between atoms: _90  and  _91
REMARK   41  A    between atoms: _101  and  _103
REMARK   42  A    between atoms: _103  and  _104
REMARK   43  A    between atoms: _103  and  _106
REMARK   44  A    between atoms: _106  and  _107
REMARK   45  A    between atoms: _109  and  _111
REMARK   46  A    between atoms: _111  and  _112
REMARK   47  A    between atoms: _111  and  _114
REMARK   48  A    between atoms: _114  and  _115
REMARK   49  A    between atoms: _115  and  _116
REMARK   50  A    between atoms: _121  and  _123
REMARK   51  A    between atoms: _123  and  _124
REMARK   52  A    between atoms: _123  and  _126
REMARK   53  A    between atoms: _126  and  _127
REMARK   54  A    between atoms: _130  and  _132
REMARK   55  A    between atoms: _132  and  _133
REMARK   56  A    between atoms: _132  and  _135
REMARK   57  A    between atoms: _135  and  _136
REMARK   58  A    between atoms: _141  and  _143
REMARK   59  A    between atoms: _143  and  _144
REMARK   60  A    between atoms: _143  and  _146
REMARK   61  A    between atoms: _146  and  _147
REMARK   62  A    between atoms: _147  and  _148
REMARK   63  A    between atoms: _151  and  _153
REMARK   64  A    between atoms: _153  and  _154
REMARK   65  A    between atoms: _153  and  _156
REMARK   66  A    between atoms: _156  and  _157
REMARK   67  A    between atoms: _162  and  _164
REMARK   68  A    between atoms: _164  and  _165
REMARK   69  A    between atoms: _164  and  _167
REMARK   70  A    between atoms: _167  and  _168
REMARK   71  A    between atoms: _171  and  _173
REMARK   72  A    between atoms: _173  and  _174
REMARK   73  A    between atoms: _173  and  _176
REMARK   74  A    between atoms: _176  and  _177
REMARK   75  A    between atoms: _182  and  _183
REMARK   76  A    between atoms: _185  and  _187
REMARK   77  A    between atoms: _187  and  _188
REMARK   78  A    between atoms: _187  and  _190
REMARK   79  A    between atoms: _190  and  _191
REMARK   80  A    between atoms: _191  and  _192
REMARK   81  A    between atoms: _197  and  _199
REMARK   82  A    between atoms: _199  and  _200
REMARK   83  A    between atoms: _199  and  _202
REMARK   84  A    between atoms: _202  and  _203
REMARK   85  A    between atoms: _208  and  _210
REMARK   86  A    between atoms: _210  and  _211
REMARK   87  A    between atoms: _210  and  _213
REMARK   88  A    between atoms: _213  and  _214
REMARK   89  A    between atoms: _217  and  _219
REMARK   90  A    between atoms: _219  and  _220
REMARK   91  A    between atoms: _219  and  _222
REMARK   92  A    between atoms: _222  and  _223
REMARK   93  A    between atoms: _223  and  _224
REMARK   94  A    between atoms: _227  and  _229
REMARK   95  A    between atoms: _229  and  _230
REMARK   96  A    between atoms: _229  and  _232
REMARK   97  A    between atoms: _232  and  _233
REMARK   98  A    between atoms: _236  and  _238
REMARK   99  A    between atoms: _238  and  _239
REMARK  100  A    between atoms: _238  and  _241
REMARK  101  A    between atoms: _241  and  _242
REMARK  102  A    between atoms: _252  and  _254
REMARK  103  A    between atoms: _254  and  _255
REMARK  104  A    between atoms: _257  and  _259
REMARK  105  A    between atoms: _259  and  _260
REMARK  106  A    between atoms: _259  and  _262
REMARK  107  A    between atoms: _262  and  _263
REMARK  108  A    between atoms: _268  and  _269
REMARK  109  A    between atoms: _271  and  _273
REMARK  110  A    between atoms: _273  and  _274
REMARK  111  A    between atoms: _273  and  _276
REMARK  112  A    between atoms: _276  and  _277
REMARK  113  A    between atoms: _279  and  _281
REMARK  114  A    between atoms: _281  and  _282
REMARK  115  A    between atoms: _281  and  _284
REMARK  116  A    between atoms: _284  and  _285
REMARK  117  A    between atoms: _295  and  _297
REMARK  118  A    between atoms: _297  and  _298
REMARK  119  A    between atoms: _297  and  _300
REMARK  120  A    between atoms: _303  and  _305
REMARK  121  A    between atoms: _305  and  _306
REMARK  122  A    between atoms: _305  and  _308
REMARK  123  A    between atoms: _308  and  _309
REMARK  124  A    between atoms: _312  and  _314
REMARK  125  A    between atoms: _314  and  _315
REMARK  126  A    between atoms: _314  and  _317
REMARK  127  A    between atoms: _320  and  _322
REMARK  128  A    between atoms: _322  and  _323
REMARK  129  A    between atoms: _322  and  _325
REMARK  130  A    between atoms: _325  and  _326
REMARK                            x       y       z     vdW  Elec       q    Type
REMARK                         _______ _______ _______ _____ _____    ______ ____
ROOT
ATOM      1  O   HOH     1      15.674  63.718  47.436  0.00  0.00    +0.000 OA
ENDROOT
TORSDOF 0
REMARK  Name = ../refined-set-2016/1j01/1j01_pocket.pdb
REMARK  130 active torsions:
REMARK  status: ('A' for Active; 'I' for Inactive)
REMARK    1  A    between atoms: _1  and  _3
REMARK    2  A    between atoms: _3  and  _4
REMARK    3  A    between atoms: _7  and  _9
REMARK    4  A    between atoms: _9  and  _10
REMARK    5  A    between atoms: _9  and  _12
REMARK    6  A    between atoms: _12  and  _13
REMARK    7  A    between atoms: _16  and  _18
REMARK    8  A    between atoms: _18  and  _19
REMARK    9  A    between atoms: _22  and  _24
REMARK   10  A    between atoms: _24  and  _25
REMARK   11  A    between atoms: _24  and  _27
REMARK   12  A    between atoms: _27  and  _28
REMARK   13  A    between atoms: _28  and  _29
REMARK   14  A    between atoms: _32  and  _34
REMARK   15  A    between atoms: _34  and  _35
REMARK   16  A    between atoms: _34  and  _37
REMARK   17  A    between atoms: _37  and  _38
REMARK   18  A    between atoms: _43  and  _45
REMARK   19  A    between atoms: _45  and  _46
REMARK   20  A    between atoms: _45  and  _48
REMARK   21  A    between atoms: _48  and  _49
REMARK   22  A    between atoms: _49  and  _50
REMARK   23  A    between atoms: _50  and  _51
REMARK   24  A    between atoms: _51  and  _52
REMARK   25  A    between atoms: _56  and  _58
REMARK   26  A    between atoms: _58  and  _59
REMARK   27  A    between atoms: _58  and  _61
REMARK   28  A    between atoms: _61  and  _62
REMARK   29  A    between atoms: _65  and  _67
REMARK   30  A    between atoms: _67  and  _68
REMARK   31  A    between atoms: _67  and  _70
REMARK   32  A    between atoms: _70  and  _71
REMARK   33  A    between atoms: _76  and  _78
REMARK   34  A    between atoms: _78  and  _79
REMARK   35  A    between atoms: _78  and  _81
REMARK   36  A    between atoms: _81  and  _82
REMARK   37  A    between atoms: _85  and  _87
REMARK   38  A    between atoms: _87  and  _88
REMARK   39  A    between atoms: _87  and  _90
REMARK   40  A    between atoms: _90  and  _91
REMARK   41  A    between atoms: _101  and  _103
REMARK   42  A    between atoms: _103  and  _104
REMARK   43  A    between atoms: _103  and  _106
REMARK   44  A    between atoms: _106  and  _107
REMARK   45  A    between atoms: _109  and  _111
REMARK   46  A    between atoms: _111  and  _112
REMARK   47  A    between atoms: _111  and  _114
REMARK   48  A    between atoms: _114  and  _115
REMARK   49  A    between atoms: _115  and  _116
REMARK   50  A    between atoms: _121  and  _123
REMARK   51  A    between atoms: _123  and  _124
REMARK   52  A    between atoms: _123  and  _126
REMARK   53  A    between atoms: _126  and  _127
REMARK   54  A    between atoms: _130  and  _132
REMARK   55  A    between atoms: _132  and  _133
REMARK   56  A    between atoms: _132  and  _135
REMARK   57  A    between atoms: _135  and  _136
REMARK   58  A    between atoms: _141  and  _143
REMARK   59  A    between atoms: _143  and  _144
REMARK   60  A    between atoms: _143  and  _146
REMARK   61  A    between atoms: _146  and  _147
REMARK   62  A    between atoms: _147  and  _148
REMARK   63  A    between atoms: _151  and  _153
REMARK   64  A    between atoms: _153  and  _154
REMARK   65  A    between atoms: _153  and  _156
REMARK   66  A    between atoms: _156  and  _157
REMARK   67  A    between atoms: _162  and  _164
REMARK   68  A    between atoms: _164  and  _165
REMARK   69  A    between atoms: _164  and  _167
REMARK   70  A    between atoms: _167  and  _168
REMARK   71  A    between atoms: _171  and  _173
REMARK   72  A    between atoms: _173  and  _174
REMARK   73  A    between atoms: _173  and  _176
REMARK   74  A    between atoms: _176  and  _177
REMARK   75  A    between atoms: _182  and  _183
REMARK   76  A    between atoms: _185  and  _187
REMARK   77  A    between atoms: _187  and  _188
REMARK   78  A    between atoms: _187  and  _190
REMARK   79  A    between atoms: _190  and  _191
REMARK   80  A    between atoms: _191  and  _192
REMARK   81  A    between atoms: _197  and  _199
REMARK   82  A    between atoms: _199  and  _200
REMARK   83  A    between atoms: _199  and  _202
REMARK   84  A    between atoms: _202  and  _203
REMARK   85  A    between atoms: _208  and  _210
REMARK   86  A    between atoms: _210  and  _211
REMARK   87  A    between atoms: _210  and  _213
REMARK   88  A    between atoms: _213  and  _214
REMARK   89  A    between atoms: _217  and  _219
REMARK   90  A    between atoms: _219  and  _220
REMARK   91  A    between atoms: _219  and  _222
REMARK   92  A    between atoms: _222  and  _223
REMARK   93  A    between atoms: _223  and  _224
REMARK   94  A    between atoms: _227  and  _229
REMARK   95  A    between atoms: _229  and  _230
REMARK   96  A    between atoms: _229  and  _232
REMARK   97  A    between atoms: _232  and  _233
REMARK   98  A    between atoms: _236  and  _238
REMARK   99  A    between atoms: _238  and  _239
REMARK  100  A    between atoms: _238  and  _241
REMARK  101  A    between atoms: _241  and  _242
REMARK  102  A    between atoms: _252  and  _254
REMARK  103  A    between atoms: _254  and  _255
REMARK  104  A    between atoms: _257  and  _259
REMARK  105  A    between atoms: _259  and  _260
REMARK  106  A    between atoms: _259  and  _262
REMARK  107  A    between atoms: _262  and  _263
REMARK  108  A    between atoms: _268  and  _269
REMARK  109  A    between atoms: _271  and  _273
REMARK  110  A    between atoms: _273  and  _274
REMARK  111  A    between atoms: _273  and  _276
REMARK  112  A    between atoms: _276  and  _277
REMARK  113  A    between atoms: _279  and  _281
REMARK  114  A    between atoms: _281  and  _282
REMARK  115  A    between atoms: _281  and  _284
REMARK  116  A    between atoms: _284  and  _285
REMARK  117  A    between atoms: _295  and  _297
REMARK  118  A    between atoms: _297  and  _298
REMARK  119  A    between atoms: _297  and  _300
REMARK  120  A    between atoms: _303  and  _305
REMARK  121  A    between atoms: _305  and  _306
REMARK  122  A    between atoms: _305  and  _308
REMARK  123  A    between atoms: _308  and  _309
REMARK  124  A    between atoms: _312  and  _314
REMARK  125  A    between atoms: _314  and  _315
REMARK  126  A    between atoms: _314  and  _317
REMARK  127  A    between atoms: _320  and  _322
REMARK  128  A    between atoms: _322  and  _323
REMARK  129  A    between atoms: _322  and  _325
REMARK  130  A    between atoms: _325  and  _326
REMARK                            x       y       z     vdW  Elec       q    Type
REMARK                         _______ _______ _______ _____ _____    ______ ____
ROOT
ATOM      1  O   HOH     1      13.142  57.051  36.722  0.00  0.00    +0.000 OA
ENDROOT
TORSDOF 0
REMARK  Name = ../refined-set-2016/1j01/1j01_pocket.pdb
REMARK  130 active torsions:
REMARK  status: ('A' for Active; 'I' for Inactive)
REMARK    1  A    between atoms: _1  and  _3
REMARK    2  A    between atoms: _3  and  _4
REMARK    3  A    between atoms: _7  and  _9
REMARK    4  A    between atoms: _9  and  _10
REMARK    5  A    between atoms: _9  and  _12
REMARK    6  A    between atoms: _12  and  _13
REMARK    7  A    between atoms: _16  and  _18
REMARK    8  A    between atoms: _18  and  _19
REMARK    9  A    between atoms: _22  and  _24
REMARK   10  A    between atoms: _24  and  _25
REMARK   11  A    between atoms: _24  and  _27
REMARK   12  A    between atoms: _27  and  _28
REMARK   13  A    between atoms: _28  and  _29
REMARK   14  A    between atoms: _32  and  _34
REMARK   15  A    between atoms: _34  and  _35
REMARK   16  A    between atoms: _34  and  _37
REMARK   17  A    between atoms: _37  and  _38
REMARK   18  A    between atoms: _43  and  _45
REMARK   19  A    between atoms: _45  and  _46
REMARK   20  A    between atoms: _45  and  _48
REMARK   21  A    between atoms: _48  and  _49
REMARK   22  A    between atoms: _49  and  _50
REMARK   23  A    between atoms: _50  and  _51
REMARK   24  A    between atoms: _51  and  _52
REMARK   25  A    between atoms: _56  and  _58
REMARK   26  A    between atoms: _58  and  _59
REMARK   27  A    between atoms: _58  and  _61
REMARK   28  A    between atoms: _61  and  _62
REMARK   29  A    between atoms: _65  and  _67
REMARK   30  A    between atoms: _67  and  _68
REMARK   31  A    between atoms: _67  and  _70
REMARK   32  A    between atoms: _70  and  _71
REMARK   33  A    between atoms: _76  and  _78
REMARK   34  A    between atoms: _78  and  _79
REMARK   35  A    between atoms: _78  and  _81
REMARK   36  A    between atoms: _81  and  _82
REMARK   37  A    between atoms: _85  and  _87
REMARK   38  A    between atoms: _87  and  _88
REMARK   39  A    between atoms: _87  and  _90
REMARK   40  A    between atoms: _90  and  _91
REMARK   41  A    between atoms: _101  and  _103
REMARK   42  A    between atoms: _103  and  _104
REMARK   43  A    between atoms: _103  and  _106
REMARK   44  A    between atoms: _106  and  _107
REMARK   45  A    between atoms: _109  and  _111
REMARK   46  A    between atoms: _111  and  _112
REMARK   47  A    between atoms: _111  and  _114
REMARK   48  A    between atoms: _114  and  _115
REMARK   49  A    between atoms: _115  and  _116
REMARK   50  A    between atoms: _121  and  _123
REMARK   51  A    between atoms: _123  and  _124
REMARK   52  A    between atoms: _123  and  _126
REMARK   53  A    between atoms: _126  and  _127
REMARK   54  A    between atoms: _130  and  _132
REMARK   55  A    between atoms: _132  and  _133
REMARK   56  A    between atoms: _132  and  _135
REMARK   57  A    between atoms: _135  and  _136
REMARK   58  A    between atoms: _141  and  _143
REMARK   59  A    between atoms: _143  and  _144
REMARK   60  A    between atoms: _143  and  _146
REMARK   61  A    between atoms: _146  and  _147
REMARK   62  A    between atoms: _147  and  _148
REMARK   63  A    between atoms: _151  and  _153
REMARK   64  A    between atoms: _153  and  _154
REMARK   65  A    between atoms: _153  and  _156
REMARK   66  A    between atoms: _156  and  _157
REMARK   67  A    between atoms: _162  and  _164
REMARK   68  A    between atoms: _164  and  _165
REMARK   69  A    between atoms: _164  and  _167
REMARK   70  A    between atoms: _167  and  _168
REMARK   71  A    between atoms: _171  and  _173
REMARK   72  A    between atoms: _173  and  _174
REMARK   73  A    between atoms: _173  and  _176
REMARK   74  A    between atoms: _176  and  _177
REMARK   75  A    between atoms: _182  and  _183
REMARK   76  A    between atoms: _185  and  _187
REMARK   77  A    between atoms: _187  and  _188
REMARK   78  A    between atoms: _187  and  _190
REMARK   79  A    between atoms: _190  and  _191
REMARK   80  A    between atoms: _191  and  _192
REMARK   81  A    between atoms: _197  and  _199
REMARK   82  A    between atoms: _199  and  _200
REMARK   83  A    between atoms: _199  and  _202
REMARK   84  A    between atoms: _202  and  _203
REMARK   85  A    between atoms: _208  and  _210
REMARK   86  A    between atoms: _210  and  _211
REMARK   87  A    between atoms: _210  and  _213
REMARK   88  A    between atoms: _213  and  _214
REMARK   89  A    between atoms: _217  and  _219
REMARK   90  A    between atoms: _219  and  _220
REMARK   91  A    between atoms: _219  and  _222
REMARK   92  A    between atoms: _222  and  _223
REMARK   93  A    between atoms: _223  and  _224
REMARK   94  A    between atoms: _227  and  _229
REMARK   95  A    between atoms: _229  and  _230
REMARK   96  A    between atoms: _229  and  _232
REMARK   97  A    between atoms: _232  and  _233
REMARK   98  A    between atoms: _236  and  _238
REMARK   99  A    between atoms: _238  and  _239
REMARK  100  A    between atoms: _238  and  _241
REMARK  101  A    between atoms: _241  and  _242
REMARK  102  A    between atoms: _252  and  _254
REMARK  103  A    between atoms: _254  and  _255
REMARK  104  A    between atoms: _257  and  _259
REMARK  105  A    between atoms: _259  and  _260
REMARK  106  A    between atoms: _259  and  _262
REMARK  107  A    between atoms: _262  and  _263
REMARK  108  A    between atoms: _268  and  _269
REMARK  109  A    between atoms: _271  and  _273
REMARK  110  A    between atoms: _273  and  _274
REMARK  111  A    between atoms: _273  and  _276
REMARK  112  A    between atoms: _276  and  _277
REMARK  113  A    between atoms: _279  and  _281
REMARK  114  A    between atoms: _281  and  _282
REMARK  115  A    between atoms: _281  and  _284
REMARK  116  A    between atoms: _284  and  _285
REMARK  117  A    between atoms: _295  and  _297
REMARK  118  A    between atoms: _297  and  _298
REMARK  119  A    between atoms: _297  and  _300
REMARK  120  A    between atoms: _303  and  _305
REMARK  121  A    between atoms: _305  and  _306
REMARK  122  A    between atoms: _305  and  _308
REMARK  123  A    between atoms: _308  and  _309
REMARK  124  A    between atoms: _312  and  _314
REMARK  125  A    between atoms: _314  and  _315
REMARK  126  A    between atoms: _314  and  _317
REMARK  127  A    between atoms: _320  and  _322
REMARK  128  A    between atoms: _322  and  _323
REMARK  129  A    between atoms: _322  and  _325
REMARK  130  A    between atoms: _325  and  _326
REMARK                            x       y       z     vdW  Elec       q    Type
REMARK                         _______ _______ _______ _____ _____    ______ ____
ROOT
ATOM      1  O   HOH     1      12.796  60.967  44.731  0.00  0.00    +0.000 OA
ENDROOT
TORSDOF 0
REMARK  Name = ../refined-set-2016/1j01/1j01_pocket.pdb
REMARK  130 active torsions:
REMARK  status: ('A' for Active; 'I' for Inactive)
REMARK    1  A    between atoms: _1  and  _3
REMARK    2  A    between atoms: _3  and  _4
REMARK    3  A    between atoms: _7  and  _9
REMARK    4  A    between atoms: _9  and  _10
REMARK    5  A    between atoms: _9  and  _12
REMARK    6  A    between atoms: _12  and  _13
REMARK    7  A    between atoms: _16  and  _18
REMARK    8  A    between atoms: _18  and  _19
REMARK    9  A    between atoms: _22  and  _24
REMARK   10  A    between atoms: _24  and  _25
REMARK   11  A    between atoms: _24  and  _27
REMARK   12  A    between atoms: _27  and  _28
REMARK   13  A    between atoms: _28  and  _29
REMARK   14  A    between atoms: _32  and  _34
REMARK   15  A    between atoms: _34  and  _35
REMARK   16  A    between atoms: _34  and  _37
REMARK   17  A    between atoms: _37  and  _38
REMARK   18  A    between atoms: _43  and  _45
REMARK   19  A    between atoms: _45  and  _46
REMARK   20  A    between atoms: _45  and  _48
REMARK   21  A    between atoms: _48  and  _49
REMARK   22  A    between atoms: _49  and  _50
REMARK   23  A    between atoms: _50  and  _51
REMARK   24  A    between atoms: _51  and  _52
REMARK   25  A    between atoms: _56  and  _58
REMARK   26  A    between atoms: _58  and  _59
REMARK   27  A    between atoms: _58  and  _61
REMARK   28  A    between atoms: _61  and  _62
REMARK   29  A    between atoms: _65  and  _67
REMARK   30  A    between atoms: _67  and  _68
REMARK   31  A    between atoms: _67  and  _70
REMARK   32  A    between atoms: _70  and  _71
REMARK   33  A    between atoms: _76  and  _78
REMARK   34  A    between atoms: _78  and  _79
REMARK   35  A    between atoms: _78  and  _81
REMARK   36  A    between atoms: _81  and  _82
REMARK   37  A    between atoms: _85  and  _87
REMARK   38  A    between atoms: _87  and  _88
REMARK   39  A    between atoms: _87  and  _90
REMARK   40  A    between atoms: _90  and  _91
REMARK   41  A    between atoms: _101  and  _103
REMARK   42  A    between atoms: _103  and  _104
REMARK   43  A    between atoms: _103  and  _106
REMARK   44  A    between atoms: _106  and  _107
REMARK   45  A    between atoms: _109  and  _111
REMARK   46  A    between atoms: _111  and  _112
REMARK   47  A    between atoms: _111  and  _114
REMARK   48  A    between atoms: _114  and  _115
REMARK   49  A    between atoms: _115  and  _116
REMARK   50  A    between atoms: _121  and  _123
REMARK   51  A    between atoms: _123  and  _124
REMARK   52  A    between atoms: _123  and  _126
REMARK   53  A    between atoms: _126  and  _127
REMARK   54  A    between atoms: _130  and  _132
REMARK   55  A    between atoms: _132  and  _133
REMARK   56  A    between atoms: _132  and  _135
REMARK   57  A    between atoms: _135  and  _136
REMARK   58  A    between atoms: _141  and  _143
REMARK   59  A    between atoms: _143  and  _144
REMARK   60  A    between atoms: _143  and  _146
REMARK   61  A    between atoms: _146  and  _147
REMARK   62  A    between atoms: _147  and  _148
REMARK   63  A    between atoms: _151  and  _153
REMARK   64  A    between atoms: _153  and  _154
REMARK   65  A    between atoms: _153  and  _156
REMARK   66  A    between atoms: _156  and  _157
REMARK   67  A    between atoms: _162  and  _164
REMARK   68  A    between atoms: _164  and  _165
REMARK   69  A    between atoms: _164  and  _167
REMARK   70  A    between atoms: _167  and  _168
REMARK   71  A    between atoms: _171  and  _173
REMARK   72  A    between atoms: _173  and  _174
REMARK   73  A    between atoms: _173  and  _176
REMARK   74  A    between atoms: _176  and  _177
REMARK   75  A    between atoms: _182  and  _183
REMARK   76  A    between atoms: _185  and  _187
REMARK   77  A    between atoms: _187  and  _188
REMARK   78  A    between atoms: _187  and  _190
REMARK   79  A    between atoms: _190  and  _191
REMARK   80  A    between atoms: _191  and  _192
REMARK   81  A    between atoms: _197  and  _199
REMARK   82  A    between atoms: _199  and  _200
REMARK   83  A    between atoms: _199  and  _202
REMARK   84  A    between atoms: _202  and  _203
REMARK   85  A    between atoms: _208  and  _210
REMARK   86  A    between atoms: _210  and  _211
REMARK   87  A    between atoms: _210  and  _213
REMARK   88  A    between atoms: _213  and  _214
REMARK   89  A    between atoms: _217  and  _219
REMARK   90  A    between atoms: _219  and  _220
REMARK   91  A    between atoms: _219  and  _222
REMARK   92  A    between atoms: _222  and  _223
REMARK   93  A    between atoms: _223  and  _224
REMARK   94  A    between atoms: _227  and  _229
REMARK   95  A    between atoms: _229  and  _230
REMARK   96  A    between atoms: _229  and  _232
REMARK   97  A    between atoms: _232  and  _233
REMARK   98  A    between atoms: _236  and  _238
REMARK   99  A    between atoms: _238  and  _239
REMARK  100  A    between atoms: _238  and  _241
REMARK  101  A    between atoms: _241  and  _242
REMARK  102  A    between atoms: _252  and  _254
REMARK  103  A    between atoms: _254  and  _255
REMARK  104  A    between atoms: _257  and  _259
REMARK  105  A    between atoms: _259  and  _260
REMARK  106  A    between atoms: _259  and  _262
REMARK  107  A    between atoms: _262  and  _263
REMARK  108  A    between atoms: _268  and  _269
REMARK  109  A    between atoms: _271  and  _273
REMARK  110  A    between atoms: _273  and  _274
REMARK  111  A    between atoms: _273  and  _276
REMARK  112  A    between atoms: _276  and  _277
REMARK  113  A    between atoms: _279  and  _281
REMARK  114  A    between atoms: _281  and  _282
REMARK  115  A    between atoms: _281  and  _284
REMARK  116  A    between atoms: _284  and  _285
REMARK  117  A    between atoms: _295  and  _297
REMARK  118  A    between atoms: _297  and  _298
REMARK  119  A    between atoms: _297  and  _300
REMARK  120  A    between atoms: _303  and  _305
REMARK  121  A    between atoms: _305  and  _306
REMARK  122  A    between atoms: _305  and  _308
REMARK  123  A    between atoms: _308  and  _309
REMARK  124  A    between atoms: _312  and  _314
REMARK  125  A    between atoms: _314  and  _315
REMARK  126  A    between atoms: _314  and  _317
REMARK  127  A    between atoms: _320  and  _322
REMARK  128  A    between atoms: _322  and  _323
REMARK  129  A    between atoms: _322  and  _325
REMARK  130  A    between atoms: _325  and  _326
REMARK                            x       y       z     vdW  Elec       q    Type
REMARK                         _______ _______ _______ _____ _____    ______ ____
ROOT
ATOM      1  O   HOH     1      12.522  63.467  37.255  0.00  0.00    +0.000 OA
ENDROOT
TORSDOF 0
REMARK  Name = ../refined-set-2016/1j01/1j01_pocket.pdb
REMARK  130 active torsions:
REMARK  status: ('A' for Active; 'I' for Inactive)
REMARK    1  A    between atoms: _1  and  _3
REMARK    2  A    between atoms: _3  and  _4
REMARK    3  A    between atoms: _7  and  _9
REMARK    4  A    between atoms: _9  and  _10
REMARK    5  A    between atoms: _9  and  _12
REMARK    6  A    between atoms: _12  and  _13
REMARK    7  A    between atoms: _16  and  _18
REMARK    8  A    between atoms: _18  and  _19
REMARK    9  A    between atoms: _22  and  _24
REMARK   10  A    between atoms: _24  and  _25
REMARK   11  A    between atoms: _24  and  _27
REMARK   12  A    between atoms: _27  and  _28
REMARK   13  A    between atoms: _28  and  _29
REMARK   14  A    between atoms: _32  and  _34
REMARK   15  A    between atoms: _34  and  _35
REMARK   16  A    between atoms: _34  and  _37
REMARK   17  A    between atoms: _37  and  _38
REMARK   18  A    between atoms: _43  and  _45
REMARK   19  A    between atoms: _45  and  _46
REMARK   20  A    between atoms: _45  and  _48
REMARK   21  A    between atoms: _48  and  _49
REMARK   22  A    between atoms: _49  and  _50
REMARK   23  A    between atoms: _50  and  _51
REMARK   24  A    between atoms: _51  and  _52
REMARK   25  A    between atoms: _56  and  _58
REMARK   26  A    between atoms: _58  and  _59
REMARK   27  A    between atoms: _58  and  _61
REMARK   28  A    between atoms: _61  and  _62
REMARK   29  A    between atoms: _65  and  _67
REMARK   30  A    between atoms: _67  and  _68
REMARK   31  A    between atoms: _67  and  _70
REMARK   32  A    between atoms: _70  and  _71
REMARK   33  A    between atoms: _76  and  _78
REMARK   34  A    between atoms: _78  and  _79
REMARK   35  A    between atoms: _78  and  _81
REMARK   36  A    between atoms: _81  and  _82
REMARK   37  A    between atoms: _85  and  _87
REMARK   38  A    between atoms: _87  and  _88
REMARK   39  A    between atoms: _87  and  _90
REMARK   40  A    between atoms: _90  and  _91
REMARK   41  A    between atoms: _101  and  _103
REMARK   42  A    between atoms: _103  and  _104
REMARK   43  A    between atoms: _103  and  _106
REMARK   44  A    between atoms: _106  and  _107
REMARK   45  A    between atoms: _109  and  _111
REMARK   46  A    between atoms: _111  and  _112
REMARK   47  A    between atoms: _111  and  _114
REMARK   48  A    between atoms: _114  and  _115
REMARK   49  A    between atoms: _115  and  _116
REMARK   50  A    between atoms: _121  and  _123
REMARK   51  A    between atoms: _123  and  _124
REMARK   52  A    between atoms: _123  and  _126
REMARK   53  A    between atoms: _126  and  _127
REMARK   54  A    between atoms: _130  and  _132
REMARK   55  A    between atoms: _132  and  _133
REMARK   56  A    between atoms: _132  and  _135
REMARK   57  A    between atoms: _135  and  _136
REMARK   58  A    between atoms: _141  and  _143
REMARK   59  A    between atoms: _143  and  _144
REMARK   60  A    between atoms: _143  and  _146
REMARK   61  A    between atoms: _146  and  _147
REMARK   62  A    between atoms: _147  and  _148
REMARK   63  A    between atoms: _151  and  _153
REMARK   64  A    between atoms: _153  and  _154
REMARK   65  A    between atoms: _153  and  _156
REMARK   66  A    between atoms: _156  and  _157
REMARK   67  A    between atoms: _162  and  _164
REMARK   68  A    between atoms: _164  and  _165
REMARK   69  A    between atoms: _164  and  _167
REMARK   70  A    between atoms: _167  and  _168
REMARK   71  A    between atoms: _171  and  _173
REMARK   72  A    between atoms: _173  and  _174
REMARK   73  A    between atoms: _173  and  _176
REMARK   74  A    between atoms: _176  and  _177
REMARK   75  A    between atoms: _182  and  _183
REMARK   76  A    between atoms: _185  and  _187
REMARK   77  A    between atoms: _187  and  _188
REMARK   78  A    between atoms: _187  and  _190
REMARK   79  A    between atoms: _190  and  _191
REMARK   80  A    between atoms: _191  and  _192
REMARK   81  A    between atoms: _197  and  _199
REMARK   82  A    between atoms: _199  and  _200
REMARK   83  A    between atoms: _199  and  _202
REMARK   84  A    between atoms: _202  and  _203
REMARK   85  A    between atoms: _208  and  _210
REMARK   86  A    between atoms: _210  and  _211
REMARK   87  A    between atoms: _210  and  _213
REMARK   88  A    between atoms: _213  and  _214
REMARK   89  A    between atoms: _217  and  _219
REMARK   90  A    between atoms: _219  and  _220
REMARK   91  A    between atoms: _219  and  _222
REMARK   92  A    between atoms: _222  and  _223
REMARK   93  A    between atoms: _223  and  _224
REMARK   94  A    between atoms: _227  and  _229
REMARK   95  A    between atoms: _229  and  _230
REMARK   96  A    between atoms: _229  and  _232
REMARK   97  A    between atoms: _232  and  _233
REMARK   98  A    between atoms: _236  and  _238
REMARK   99  A    between atoms: _238  and  _239
REMARK  100  A    between atoms: _238  and  _241
REMARK  101  A    between atoms: _241  and  _242
REMARK  102  A    between atoms: _252  and  _254
REMARK  103  A    between atoms: _254  and  _255
REMARK  104  A    between atoms: _257  and  _259
REMARK  105  A    between atoms: _259  and  _260
REMARK  106  A    between atoms: _259  and  _262
REMARK  107  A    between atoms: _262  and  _263
REMARK  108  A    between atoms: _268  and  _269
REMARK  109  A    between atoms: _271  and  _273
REMARK  110  A    between atoms: _273  and  _274
REMARK  111  A    between atoms: _273  and  _276
REMARK  112  A    between atoms: _276  and  _277
REMARK  113  A    between atoms: _279  and  _281
REMARK  114  A    between atoms: _281  and  _282
REMARK  115  A    between atoms: _281  and  _284
REMARK  116  A    between atoms: _284  and  _285
REMARK  117  A    between atoms: _295  and  _297
REMARK  118  A    between atoms: _297  and  _298
REMARK  119  A    between atoms: _297  and  _300
REMARK  120  A    between atoms: _303  and  _305
REMARK  121  A    between atoms: _305  and  _306
REMARK  122  A    between atoms: _305  and  _308
REMARK  123  A    between atoms: _308  and  _309
REMARK  124  A    between atoms: _312  and  _314
REMARK  125  A    between atoms: _314  and  _315
REMARK  126  A    between atoms: _314  and  _317
REMARK  127  A    between atoms: _320  and  _322
REMARK  128  A    between atoms: _322  and  _323
REMARK  129  A    between atoms: _322  and  _325
REMARK  130  A    between atoms: _325  and  _326
REMARK                            x       y       z     vdW  Elec       q    Type
REMARK                         _______ _______ _______ _____ _____    ______ ____
ROOT
ATOM      1  O   HOH     1      13.539  57.111  43.614  0.00  0.00    +0.000 OA
ENDROOT
TORSDOF 0
REMARK  Name = ../refined-set-2016/1j01/1j01_pocket.pdb
REMARK  130 active torsions:
REMARK  status: ('A' for Active; 'I' for Inactive)
REMARK    1  A    between atoms: _1  and  _3
REMARK    2  A    between atoms: _3  and  _4
REMARK    3  A    between atoms: _7  and  _9
REMARK    4  A    between atoms: _9  and  _10
REMARK    5  A    between atoms: _9  and  _12
REMARK    6  A    between atoms: _12  and  _13
REMARK    7  A    between atoms: _16  and  _18
REMARK    8  A    between atoms: _18  and  _19
REMARK    9  A    between atoms: _22  and  _24
REMARK   10  A    between atoms: _24  and  _25
REMARK   11  A    between atoms: _24  and  _27
REMARK   12  A    between atoms: _27  and  _28
REMARK   13  A    between atoms: _28  and  _29
REMARK   14  A    between atoms: _32  and  _34
REMARK   15  A    between atoms: _34  and  _35
REMARK   16  A    between atoms: _34  and  _37
REMARK   17  A    between atoms: _37  and  _38
REMARK   18  A    between atoms: _43  and  _45
REMARK   19  A    between atoms: _45  and  _46
REMARK   20  A    between atoms: _45  and  _48
REMARK   21  A    between atoms: _48  and  _49
REMARK   22  A    between atoms: _49  and  _50
REMARK   23  A    between atoms: _50  and  _51
REMARK   24  A    between atoms: _51  and  _52
REMARK   25  A    between atoms: _56  and  _58
REMARK   26  A    between atoms: _58  and  _59
REMARK   27  A    between atoms: _58  and  _61
REMARK   28  A    between atoms: _61  and  _62
REMARK   29  A    between atoms: _65  and  _67
REMARK   30  A    between atoms: _67  and  _68
REMARK   31  A    between atoms: _67  and  _70
REMARK   32  A    between atoms: _70  and  _71
REMARK   33  A    between atoms: _76  and  _78
REMARK   34  A    between atoms: _78  and  _79
REMARK   35  A    between atoms: _78  and  _81
REMARK   36  A    between atoms: _81  and  _82
REMARK   37  A    between atoms: _85  and  _87
REMARK   38  A    between atoms: _87  and  _88
REMARK   39  A    between atoms: _87  and  _90
REMARK   40  A    between atoms: _90  and  _91
REMARK   41  A    between atoms: _101  and  _103
REMARK   42  A    between atoms: _103  and  _104
REMARK   43  A    between atoms: _103  and  _106
REMARK   44  A    between atoms: _106  and  _107
REMARK   45  A    between atoms: _109  and  _111
REMARK   46  A    between atoms: _111  and  _112
REMARK   47  A    between atoms: _111  and  _114
REMARK   48  A    between atoms: _114  and  _115
REMARK   49  A    between atoms: _115  and  _116
REMARK   50  A    between atoms: _121  and  _123
REMARK   51  A    between atoms: _123  and  _124
REMARK   52  A    between atoms: _123  and  _126
REMARK   53  A    between atoms: _126  and  _127
REMARK   54  A    between atoms: _130  and  _132
REMARK   55  A    between atoms: _132  and  _133
REMARK   56  A    between atoms: _132  and  _135
REMARK   57  A    between atoms: _135  and  _136
REMARK   58  A    between atoms: _141  and  _143
REMARK   59  A    between atoms: _143  and  _144
REMARK   60  A    between atoms: _143  and  _146
REMARK   61  A    between atoms: _146  and  _147
REMARK   62  A    between atoms: _147  and  _148
REMARK   63  A    between atoms: _151  and  _153
REMARK   64  A    between atoms: _153  and  _154
REMARK   65  A    between atoms: _153  and  _156
REMARK   66  A    between atoms: _156  and  _157
REMARK   67  A    between atoms: _162  and  _164
REMARK   68  A    between atoms: _164  and  _165
REMARK   69  A    between atoms: _164  and  _167
REMARK   70  A    between atoms: _167  and  _168
REMARK   71  A    between atoms: _171  and  _173
REMARK   72  A    between atoms: _173  and  _174
REMARK   73  A    between atoms: _173  and  _176
REMARK   74  A    between atoms: _176  and  _177
REMARK   75  A    between atoms: _182  and  _183
REMARK   76  A    between atoms: _185  and  _187
REMARK   77  A    between atoms: _187  and  _188
REMARK   78  A    between atoms: _187  and  _190
REMARK   79  A    between atoms: _190  and  _191
REMARK   80  A    between atoms: _191  and  _192
REMARK   81  A    between atoms: _197  and  _199
REMARK   82  A    between atoms: _199  and  _200
REMARK   83  A    between atoms: _199  and  _202
REMARK   84  A    between atoms: _202  and  _203
REMARK   85  A    between atoms: _208  and  _210
REMARK   86  A    between atoms: _210  and  _211
REMARK   87  A    between atoms: _210  and  _213
REMARK   88  A    between atoms: _213  and  _214
REMARK   89  A    between atoms: _217  and  _219
REMARK   90  A    between atoms: _219  and  _220
REMARK   91  A    between atoms: _219  and  _222
REMARK   92  A    between atoms: _222  and  _223
REMARK   93  A    between atoms: _223  and  _224
REMARK   94  A    between atoms: _227  and  _229
REMARK   95  A    between atoms: _229  and  _230
REMARK   96  A    between atoms: _229  and  _232
REMARK   97  A    between atoms: _232  and  _233
REMARK   98  A    between atoms: _236  and  _238
REMARK   99  A    between atoms: _238  and  _239
REMARK  100  A    between atoms: _238  and  _241
REMARK  101  A    between atoms: _241  and  _242
REMARK  102  A    between atoms: _252  and  _254
REMARK  103  A    between atoms: _254  and  _255
REMARK  104  A    between atoms: _257  and  _259
REMARK  105  A    between atoms: _259  and  _260
REMARK  106  A    between atoms: _259  and  _262
REMARK  107  A    between atoms: _262  and  _263
REMARK  108  A    between atoms: _268  and  _269
REMARK  109  A    between atoms: _271  and  _273
REMARK  110  A    between atoms: _273  and  _274
REMARK  111  A    between atoms: _273  and  _276
REMARK  112  A    between atoms: _276  and  _277
REMARK  113  A    between atoms: _279  and  _281
REMARK  114  A    between atoms: _281  and  _282
REMARK  115  A    between atoms: _281  and  _284
REMARK  116  A    between atoms: _284  and  _285
REMARK  117  A    between atoms: _295  and  _297
REMARK  118  A    between atoms: _297  and  _298
REMARK  119  A    between atoms: _297  and  _300
REMARK  120  A    between atoms: _303  and  _305
REMARK  121  A    between atoms: _305  and  _306
REMARK  122  A    between atoms: _305  and  _308
REMARK  123  A    between atoms: _308  and  _309
REMARK  124  A    between atoms: _312  and  _314
REMARK  125  A    between atoms: _314  and  _315
REMARK  126  A    between atoms: _314  and  _317
REMARK  127  A    between atoms: _320  and  _322
REMARK  128  A    between atoms: _322  and  _323
REMARK  129  A    between atoms: _322  and  _325
REMARK  130  A    between atoms: _325  and  _326
REMARK                            x       y       z     vdW  Elec       q    Type
REMARK                         _______ _______ _______ _____ _____    ______ ____
ROOT
ATOM      1  O   HOH     1      13.602  60.670  40.203  0.00  0.00    +0.000 OA
ENDROOT
TORSDOF 0
REMARK  Name = ../refined-set-2016/1j01/1j01_pocket.pdb
REMARK  130 active torsions:
REMARK  status: ('A' for Active; 'I' for Inactive)
REMARK    1  A    between atoms: _1  and  _3
REMARK    2  A    between atoms: _3  and  _4
REMARK    3  A    between atoms: _7  and  _9
REMARK    4  A    between atoms: _9  and  _10
REMARK    5  A    between atoms: _9  and  _12
REMARK    6  A    between atoms: _12  and  _13
REMARK    7  A    between atoms: _16  and  _18
REMARK    8  A    between atoms: _18  and  _19
REMARK    9  A    between atoms: _22  and  _24
REMARK   10  A    between atoms: _24  and  _25
REMARK   11  A    between atoms: _24  and  _27
REMARK   12  A    between atoms: _27  and  _28
REMARK   13  A    between atoms: _28  and  _29
REMARK   14  A    between atoms: _32  and  _34
REMARK   15  A    between atoms: _34  and  _35
REMARK   16  A    between atoms: _34  and  _37
REMARK   17  A    between atoms: _37  and  _38
REMARK   18  A    between atoms: _43  and  _45
REMARK   19  A    between atoms: _45  and  _46
REMARK   20  A    between atoms: _45  and  _48
REMARK   21  A    between atoms: _48  and  _49
REMARK   22  A    between atoms: _49  and  _50
REMARK   23  A    between atoms: _50  and  _51
REMARK   24  A    between atoms: _51  and  _52
REMARK   25  A    between atoms: _56  and  _58
REMARK   26  A    between atoms: _58  and  _59
REMARK   27  A    between atoms: _58  and  _61
REMARK   28  A    between atoms: _61  and  _62
REMARK   29  A    between atoms: _65  and  _67
REMARK   30  A    between atoms: _67  and  _68
REMARK   31  A    between atoms: _67  and  _70
REMARK   32  A    between atoms: _70  and  _71
REMARK   33  A    between atoms: _76  and  _78
REMARK   34  A    between atoms: _78  and  _79
REMARK   35  A    between atoms: _78  and  _81
REMARK   36  A    between atoms: _81  and  _82
REMARK   37  A    between atoms: _85  and  _87
REMARK   38  A    between atoms: _87  and  _88
REMARK   39  A    between atoms: _87  and  _90
REMARK   40  A    between atoms: _90  and  _91
REMARK   41  A    between atoms: _101  and  _103
REMARK   42  A    between atoms: _103  and  _104
REMARK   43  A    between atoms: _103  and  _106
REMARK   44  A    between atoms: _106  and  _107
REMARK   45  A    between atoms: _109  and  _111
REMARK   46  A    between atoms: _111  and  _112
REMARK   47  A    between atoms: _111  and  _114
REMARK   48  A    between atoms: _114  and  _115
REMARK   49  A    between atoms: _115  and  _116
REMARK   50  A    between atoms: _121  and  _123
REMARK   51  A    between atoms: _123  and  _124
REMARK   52  A    between atoms: _123  and  _126
REMARK   53  A    between atoms: _126  and  _127
REMARK   54  A    between atoms: _130  and  _132
REMARK   55  A    between atoms: _132  and  _133
REMARK   56  A    between atoms: _132  and  _135
REMARK   57  A    between atoms: _135  and  _136
REMARK   58  A    between atoms: _141  and  _143
REMARK   59  A    between atoms: _143  and  _144
REMARK   60  A    between atoms: _143  and  _146
REMARK   61  A    between atoms: _146  and  _147
REMARK   62  A    between atoms: _147  and  _148
REMARK   63  A    between atoms: _151  and  _153
REMARK   64  A    between atoms: _153  and  _154
REMARK   65  A    between atoms: _153  and  _156
REMARK   66  A    between atoms: _156  and  _157
REMARK   67  A    between atoms: _162  and  _164
REMARK   68  A    between atoms: _164  and  _165
REMARK   69  A    between atoms: _164  and  _167
REMARK   70  A    between atoms: _167  and  _168
REMARK   71  A    between atoms: _171  and  _173
REMARK   72  A    between atoms: _173  and  _174
REMARK   73  A    between atoms: _173  and  _176
REMARK   74  A    between atoms: _176  and  _177
REMARK   75  A    between atoms: _182  and  _183
REMARK   76  A    between atoms: _185  and  _187
REMARK   77  A    between atoms: _187  and  _188
REMARK   78  A    between atoms: _187  and  _190
REMARK   79  A    between atoms: _190  and  _191
REMARK   80  A    between atoms: _191  and  _192
REMARK   81  A    between atoms: _197  and  _199
REMARK   82  A    between atoms: _199  and  _200
REMARK   83  A    between atoms: _199  and  _202
REMARK   84  A    between atoms: _202  and  _203
REMARK   85  A    between atoms: _208  and  _210
REMARK   86  A    between atoms: _210  and  _211
REMARK   87  A    between atoms: _210  and  _213
REMARK   88  A    between atoms: _213  and  _214
REMARK   89  A    between atoms: _217  and  _219
REMARK   90  A    between atoms: _219  and  _220
REMARK   91  A    between atoms: _219  and  _222
REMARK   92  A    between atoms: _222  and  _223
REMARK   93  A    between atoms: _223  and  _224
REMARK   94  A    between atoms: _227  and  _229
REMARK   95  A    between atoms: _229  and  _230
REMARK   96  A    between atoms: _229  and  _232
REMARK   97  A    between atoms: _232  and  _233
REMARK   98  A    between atoms: _236  and  _238
REMARK   99  A    between atoms: _238  and  _239
REMARK  100  A    between atoms: _238  and  _241
REMARK  101  A    between atoms: _241  and  _242
REMARK  102  A    between atoms: _252  and  _254
REMARK  103  A    between atoms: _254  and  _255
REMARK  104  A    between atoms: _257  and  _259
REMARK  105  A    between atoms: _259  and  _260
REMARK  106  A    between atoms: _259  and  _262
REMARK  107  A    between atoms: _262  and  _263
REMARK  108  A    between atoms: _268  and  _269
REMARK  109  A    between atoms: _271  and  _273
REMARK  110  A    between atoms: _273  and  _274
REMARK  111  A    between atoms: _273  and  _276
REMARK  112  A    between atoms: _276  and  _277
REMARK  113  A    between atoms: _279  and  _281
REMARK  114  A    between atoms: _281  and  _282
REMARK  115  A    between atoms: _281  and  _284
REMARK  116  A    between atoms: _284  and  _285
REMARK  117  A    between atoms: _295  and  _297
REMARK  118  A    between atoms: _297  and  _298
REMARK  119  A    between atoms: _297  and  _300
REMARK  120  A    between atoms: _303  and  _305
REMARK  121  A    between atoms: _305  and  _306
REMARK  122  A    between atoms: _305  and  _308
REMARK  123  A    between atoms: _308  and  _309
REMARK  124  A    between atoms: _312  and  _314
REMARK  125  A    between atoms: _314  and  _315
REMARK  126  A    between atoms: _314  and  _317
REMARK  127  A    between atoms: _320  and  _322
REMARK  128  A    between atoms: _322  and  _323
REMARK  129  A    between atoms: _322  and  _325
REMARK  130  A    between atoms: _325  and  _326
REMARK                            x       y       z     vdW  Elec       q    Type
REMARK                         _______ _______ _______ _____ _____    ______ ____
ROOT
ATOM      1  O   HOH     1      13.137  60.631  37.057  0.00  0.00    +0.000 OA
ENDROOT
TORSDOF 0
REMARK  Name = ../refined-set-2016/1j01/1j01_pocket.pdb
REMARK  130 active torsions:
REMARK  status: ('A' for Active; 'I' for Inactive)
REMARK    1  A    between atoms: _1  and  _3
REMARK    2  A    between atoms: _3  and  _4
REMARK    3  A    between atoms: _7  and  _9
REMARK    4  A    between atoms: _9  and  _10
REMARK    5  A    between atoms: _9  and  _12
REMARK    6  A    between atoms: _12  and  _13
REMARK    7  A    between atoms: _16  and  _18
REMARK    8  A    between atoms: _18  and  _19
REMARK    9  A    between atoms: _22  and  _24
REMARK   10  A    between atoms: _24  and  _25
REMARK   11  A    between atoms: _24  and  _27
REMARK   12  A    between atoms: _27  and  _28
REMARK   13  A    between atoms: _28  and  _29
REMARK   14  A    between atoms: _32  and  _34
REMARK   15  A    between atoms: _34  and  _35
REMARK   16  A    between atoms: _34  and  _37
REMARK   17  A    between atoms: _37  and  _38
REMARK   18  A    between atoms: _43  and  _45
REMARK   19  A    between atoms: _45  and  _46
REMARK   20  A    between atoms: _45  and  _48
REMARK   21  A    between atoms: _48  and  _49
REMARK   22  A    between atoms: _49  and  _50
REMARK   23  A    between atoms: _50  and  _51
REMARK   24  A    between atoms: _51  and  _52
REMARK   25  A    between atoms: _56  and  _58
REMARK   26  A    between atoms: _58  and  _59
REMARK   27  A    between atoms: _58  and  _61
REMARK   28  A    between atoms: _61  and  _62
REMARK   29  A    between atoms: _65  and  _67
REMARK   30  A    between atoms: _67  and  _68
REMARK   31  A    between atoms: _67  and  _70
REMARK   32  A    between atoms: _70  and  _71
REMARK   33  A    between atoms: _76  and  _78
REMARK   34  A    between atoms: _78  and  _79
REMARK   35  A    between atoms: _78  and  _81
REMARK   36  A    between atoms: _81  and  _82
REMARK   37  A    between atoms: _85  and  _87
REMARK   38  A    between atoms: _87  and  _88
REMARK   39  A    between atoms: _87  and  _90
REMARK   40  A    between atoms: _90  and  _91
REMARK   41  A    between atoms: _101  and  _103
REMARK   42  A    between atoms: _103  and  _104
REMARK   43  A    between atoms: _103  and  _106
REMARK   44  A    between atoms: _106  and  _107
REMARK   45  A    between atoms: _109  and  _111
REMARK   46  A    between atoms: _111  and  _112
REMARK   47  A    between atoms: _111  and  _114
REMARK   48  A    between atoms: _114  and  _115
REMARK   49  A    between atoms: _115  and  _116
REMARK   50  A    between atoms: _121  and  _123
REMARK   51  A    between atoms: _123  and  _124
REMARK   52  A    between atoms: _123  and  _126
REMARK   53  A    between atoms: _126  and  _127
REMARK   54  A    between atoms: _130  and  _132
REMARK   55  A    between atoms: _132  and  _133
REMARK   56  A    between atoms: _132  and  _135
REMARK   57  A    between atoms: _135  and  _136
REMARK   58  A    between atoms: _141  and  _143
REMARK   59  A    between atoms: _143  and  _144
REMARK   60  A    between atoms: _143  and  _146
REMARK   61  A    between atoms: _146  and  _147
REMARK   62  A    between atoms: _147  and  _148
REMARK   63  A    between atoms: _151  and  _153
REMARK   64  A    between atoms: _153  and  _154
REMARK   65  A    between atoms: _153  and  _156
REMARK   66  A    between atoms: _156  and  _157
REMARK   67  A    between atoms: _162  and  _164
REMARK   68  A    between atoms: _164  and  _165
REMARK   69  A    between atoms: _164  and  _167
REMARK   70  A    between atoms: _167  and  _168
REMARK   71  A    between atoms: _171  and  _173
REMARK   72  A    between atoms: _173  and  _174
REMARK   73  A    between atoms: _173  and  _176
REMARK   74  A    between atoms: _176  and  _177
REMARK   75  A    between atoms: _182  and  _183
REMARK   76  A    between atoms: _185  and  _187
REMARK   77  A    between atoms: _187  and  _188
REMARK   78  A    between atoms: _187  and  _190
REMARK   79  A    between atoms: _190  and  _191
REMARK   80  A    between atoms: _191  and  _192
REMARK   81  A    between atoms: _197  and  _199
REMARK   82  A    between atoms: _199  and  _200
REMARK   83  A    between atoms: _199  and  _202
REMARK   84  A    between atoms: _202  and  _203
REMARK   85  A    between atoms: _208  and  _210
REMARK   86  A    between atoms: _210  and  _211
REMARK   87  A    between atoms: _210  and  _213
REMARK   88  A    between atoms: _213  and  _214
REMARK   89  A    between atoms: _217  and  _219
REMARK   90  A    between atoms: _219  and  _220
REMARK   91  A    between atoms: _219  and  _222
REMARK   92  A    between atoms: _222  and  _223
REMARK   93  A    between atoms: _223  and  _224
REMARK   94  A    between atoms: _227  and  _229
REMARK   95  A    between atoms: _229  and  _230
REMARK   96  A    between atoms: _229  and  _232
REMARK   97  A    between atoms: _232  and  _233
REMARK   98  A    between atoms: _236  and  _238
REMARK   99  A    between atoms: _238  and  _239
REMARK  100  A    between atoms: _238  and  _241
REMARK  101  A    between atoms: _241  and  _242
REMARK  102  A    between atoms: _252  and  _254
REMARK  103  A    between atoms: _254  and  _255
REMARK  104  A    between atoms: _257  and  _259
REMARK  105  A    between atoms: _259  and  _260
REMARK  106  A    between atoms: _259  and  _262
REMARK  107  A    between atoms: _262  and  _263
REMARK  108  A    between atoms: _268  and  _269
REMARK  109  A    between atoms: _271  and  _273
REMARK  110  A    between atoms: _273  and  _274
REMARK  111  A    between atoms: _273  and  _276
REMARK  112  A    between atoms: _276  and  _277
REMARK  113  A    between atoms: _279  and  _281
REMARK  114  A    between atoms: _281  and  _282
REMARK  115  A    between atoms: _281  and  _284
REMARK  116  A    between atoms: _284  and  _285
REMARK  117  A    between atoms: _295  and  _297
REMARK  118  A    between atoms: _297  and  _298
REMARK  119  A    between atoms: _297  and  _300
REMARK  120  A    between atoms: _303  and  _305
REMARK  121  A    between atoms: _305  and  _306
REMARK  122  A    between atoms: _305  and  _308
REMARK  123  A    between atoms: _308  and  _309
REMARK  124  A    between atoms: _312  and  _314
REMARK  125  A    between atoms: _314  and  _315
REMARK  126  A    between atoms: _314  and  _317
REMARK  127  A    between atoms: _320  and  _322
REMARK  128  A    between atoms: _322  and  _323
REMARK  129  A    between atoms: _322  and  _325
REMARK  130  A    between atoms: _325  and  _326
REMARK                            x       y       z     vdW  Elec       q    Type
REMARK                         _______ _______ _______ _____ _____    ______ ____
ROOT
ATOM      1  O   HOH     1      14.133  69.003  37.265  0.00  0.00    +0.000 OA
ENDROOT
TORSDOF 0
