REMARK  Name = ../refined-set-2016/2qhy/2qhy_pocket.pdb
REMARK  218 active torsions:
REMARK  status: ('A' for Active; 'I' for Inactive)
REMARK    1  A    between atoms: _1  and  _3
REMARK    2  A    between atoms: _3  and  _4
REMARK    3  A    between atoms: _3  and  _6
REMARK    4  A    between atoms: _6  and  _7
REMARK    5  A    between atoms: _7  and  _8
REMARK    6  A    between atoms: _8  and  _9
REMARK    7  A    between atoms: _18  and  _20
REMARK    8  A    between atoms: _20  and  _21
REMARK    9  A    between atoms: _20  and  _23
REMARK   10  A    between atoms: _23  and  _24
REMARK   11  A    between atoms: _27  and  _29
REMARK   12  A    between atoms: _29  and  _30
REMARK   13  A    between atoms: _29  and  _32
REMARK   14  A    between atoms: _32  and  _33
REMARK   15  A    between atoms: _36  and  _38
REMARK   16  A    between atoms: _38  and  _39
REMARK   17  A    between atoms: _38  and  _41
REMARK   18  A    between atoms: _41  and  _42
REMARK   19  A    between atoms: _45  and  _47
REMARK   20  A    between atoms: _47  and  _48
REMARK   21  A    between atoms: _47  and  _50
REMARK   22  A    between atoms: _50  and  _51
REMARK   23  A    between atoms: _54  and  _56
REMARK   24  A    between atoms: _56  and  _57
REMARK   25  A    between atoms: _59  and  _61
REMARK   26  A    between atoms: _61  and  _62
REMARK   27  A    between atoms: _65  and  _67
REMARK   28  A    between atoms: _67  and  _68
REMARK   29  A    between atoms: _67  and  _70
REMARK   30  A    between atoms: _70  and  _71
REMARK   31  A    between atoms: _74  and  _76
REMARK   32  A    between atoms: _76  and  _77
REMARK   33  A    between atoms: _76  and  _79
REMARK   34  A    between atoms: _79  and  _80
REMARK   35  A    between atoms: _83  and  _85
REMARK   36  A    between atoms: _85  and  _86
REMARK   37  A    between atoms: _85  and  _88
REMARK   38  A    between atoms: _88  and  _89
REMARK   39  A    between atoms: _92  and  _94
REMARK   40  A    between atoms: _94  and  _95
REMARK   41  A    between atoms: _94  and  _97
REMARK   42  A    between atoms: _100  and  _102
REMARK   43  A    between atoms: _102  and  _103
REMARK   44  A    between atoms: _102  and  _105
REMARK   45  A    between atoms: _105  and  _106
REMARK   46  A    between atoms: _109  and  _111
REMARK   47  A    between atoms: _111  and  _112
REMARK   48  A    between atoms: _114  and  _116
REMARK   49  A    between atoms: _116  and  _117
REMARK   50  A    between atoms: _119  and  _121
REMARK   51  A    between atoms: _121  and  _122
REMARK   52  A    between atoms: _121  and  _124
REMARK   53  A    between atoms: _124  and  _125
REMARK   54  A    between atoms: _128  and  _130
REMARK   55  A    between atoms: _130  and  _131
REMARK   56  A    between atoms: _133  and  _135
REMARK   57  A    between atoms: _135  and  _136
REMARK   58  A    between atoms: _138  and  _140
REMARK   59  A    between atoms: _140  and  _141
REMARK   60  A    between atoms: _140  and  _143
REMARK   61  A    between atoms: _143  and  _144
REMARK   62  A    between atoms: _150  and  _152
REMARK   63  A    between atoms: _152  and  _153
REMARK   64  A    between atoms: _152  and  _155
REMARK   65  A    between atoms: _155  and  _156
REMARK   66  A    between atoms: _159  and  _161
REMARK   67  A    between atoms: _161  and  _162
REMARK   68  A    between atoms: _161  and  _164
REMARK   69  A    between atoms: _164  and  _165
REMARK   70  A    between atoms: _169  and  _170
REMARK   71  A    between atoms: _175  and  _177
REMARK   72  A    between atoms: _177  and  _178
REMARK   73  A    between atoms: _177  and  _180
REMARK   74  A    between atoms: _180  and  _181
REMARK   75  A    between atoms: _185  and  _186
REMARK   76  A    between atoms: _191  and  _193
REMARK   77  A    between atoms: _193  and  _194
REMARK   78  A    between atoms: _193  and  _196
REMARK   79  A    between atoms: _199  and  _201
REMARK   80  A    between atoms: _201  and  _202
REMARK   81  A    between atoms: _201  and  _204
REMARK   82  A    between atoms: _204  and  _205
REMARK   83  A    between atoms: _210  and  _212
REMARK   84  A    between atoms: _212  and  _213
REMARK   85  A    between atoms: _212  and  _215
REMARK   86  A    between atoms: _215  and  _216
REMARK   87  A    between atoms: _219  and  _221
REMARK   88  A    between atoms: _221  and  _222
REMARK   89  A    between atoms: _221  and  _224
REMARK   90  A    between atoms: _224  and  _225
REMARK   91  A    between atoms: _228  and  _230
REMARK   92  A    between atoms: _230  and  _231
REMARK   93  A    between atoms: _233  and  _235
REMARK   94  A    between atoms: _235  and  _236
REMARK   95  A    between atoms: _235  and  _238
REMARK   96  A    between atoms: _238  and  _239
REMARK   97  A    between atoms: _239  and  _240
REMARK   98  A    between atoms: _240  and  _241
REMARK   99  A    between atoms: _250  and  _252
REMARK  100  A    between atoms: _252  and  _253
REMARK  101  A    between atoms: _252  and  _255
REMARK  102  A    between atoms: _255  and  _256
REMARK  103  A    between atoms: _261  and  _263
REMARK  104  A    between atoms: _263  and  _264
REMARK  105  A    between atoms: _263  and  _266
REMARK  106  A    between atoms: _266  and  _267
REMARK  107  A    between atoms: _267  and  _268
REMARK  108  A    between atoms: _268  and  _269
REMARK  109  A    between atoms: _278  and  _280
REMARK  110  A    between atoms: _280  and  _281
REMARK  111  A    between atoms: _280  and  _283
REMARK  112  A    between atoms: _283  and  _284
REMARK  113  A    between atoms: _287  and  _289
REMARK  114  A    between atoms: _289  and  _290
REMARK  115  A    between atoms: _289  and  _292
REMARK  116  A    between atoms: _292  and  _293
REMARK  117  A    between atoms: _296  and  _298
REMARK  118  A    between atoms: _298  and  _299
REMARK  119  A    between atoms: _298  and  _301
REMARK  120  A    between atoms: _301  and  _302
REMARK  121  A    between atoms: _305  and  _307
REMARK  122  A    between atoms: _307  and  _308
REMARK  123  A    between atoms: _307  and  _310
REMARK  124  A    between atoms: _310  and  _311
REMARK  125  A    between atoms: _314  and  _316
REMARK  126  A    between atoms: _316  and  _317
REMARK  127  A    between atoms: _319  and  _321
REMARK  128  A    between atoms: _321  and  _322
REMARK  129  A    between atoms: _325  and  _327
REMARK  130  A    between atoms: _327  and  _328
REMARK  131  A    between atoms: _327  and  _330
REMARK  132  A    between atoms: _330  and  _331
REMARK  133  A    between atoms: _334  and  _336
REMARK  134  A    between atoms: _336  and  _337
REMARK  135  A    between atoms: _336  and  _339
REMARK  136  A    between atoms: _339  and  _340
REMARK  137  A    between atoms: _343  and  _345
REMARK  138  A    between atoms: _345  and  _346
REMARK  139  A    between atoms: _345  and  _348
REMARK  140  A    between atoms: _348  and  _349
REMARK  141  A    between atoms: _352  and  _354
REMARK  142  A    between atoms: _354  and  _355
REMARK  143  A    between atoms: _354  and  _357
REMARK  144  A    between atoms: _360  and  _362
REMARK  145  A    between atoms: _362  and  _363
REMARK  146  A    between atoms: _362  and  _365
REMARK  147  A    between atoms: _365  and  _366
REMARK  148  A    between atoms: _366  and  _367
REMARK  149  A    between atoms: _367  and  _368
REMARK  150  A    between atoms: _368  and  _369
REMARK  151  A    between atoms: _373  and  _375
REMARK  152  A    between atoms: _375  and  _376
REMARK  153  A    between atoms: _375  and  _378
REMARK  154  A    between atoms: _378  and  _379
REMARK  155  A    between atoms: _379  and  _380
REMARK  156  A    between atoms: _382  and  _384
REMARK  157  A    between atoms: _384  and  _385
REMARK  158  A    between atoms: _384  and  _387
REMARK  159  A    between atoms: _387  and  _388
REMARK  160  A    between atoms: _391  and  _393
REMARK  161  A    between atoms: _393  and  _394
REMARK  162  A    between atoms: _396  and  _398
REMARK  163  A    between atoms: _398  and  _399
REMARK  164  A    between atoms: _401  and  _403
REMARK  165  A    between atoms: _403  and  _404
REMARK  166  A    between atoms: _403  and  _406
REMARK  167  A    between atoms: _406  and  _407
REMARK  168  A    between atoms: _410  and  _412
REMARK  169  A    between atoms: _412  and  _413
REMARK  170  A    between atoms: _415  and  _417
REMARK  171  A    between atoms: _417  and  _418
REMARK  172  A    between atoms: _420  and  _422
REMARK  173  A    between atoms: _422  and  _423
REMARK  174  A    between atoms: _422  and  _425
REMARK  175  A    between atoms: _425  and  _426
REMARK  176  A    between atoms: _432  and  _434
REMARK  177  A    between atoms: _434  and  _435
REMARK  178  A    between atoms: _434  and  _437
REMARK  179  A    between atoms: _437  and  _438
REMARK  180  A    between atoms: _441  and  _443
REMARK  181  A    between atoms: _443  and  _444
REMARK  182  A    between atoms: _443  and  _446
REMARK  183  A    between atoms: _449  and  _451
REMARK  184  A    between atoms: _451  and  _452
REMARK  185  A    between atoms: _451  and  _454
REMARK  186  A    between atoms: _454  and  _455
REMARK  187  A    between atoms: _458  and  _460
REMARK  188  A    between atoms: _460  and  _461
REMARK  189  A    between atoms: _460  and  _463
REMARK  190  A    between atoms: _463  and  _464
REMARK  191  A    between atoms: _468  and  _469
REMARK  192  A    between atoms: _474  and  _476
REMARK  193  A    between atoms: _476  and  _477
REMARK  194  A    between atoms: _476  and  _479
REMARK  195  A    between atoms: _482  and  _484
REMARK  196  A    between atoms: _484  and  _485
REMARK  197  A    between atoms: _484  and  _487
REMARK  198  A    between atoms: _487  and  _488
REMARK  199  A    between atoms: _493  and  _495
REMARK  200  A    between atoms: _495  and  _496
REMARK  201  A    between atoms: _495  and  _498
REMARK  202  A    between atoms: _498  and  _499
REMARK  203  A    between atoms: _502  and  _504
REMARK  204  A    between atoms: _504  and  _505
REMARK  205  A    between atoms: _504  and  _507
REMARK  206  A    between atoms: _507  and  _508
REMARK  207  A    between atoms: _511  and  _513
REMARK  208  A    between atoms: _513  and  _514
REMARK  209  A    between atoms: _516  and  _518
REMARK  210  A    between atoms: _518  and  _519
REMARK  211  A    between atoms: _518  and  _521
REMARK  212  A    between atoms: _521  and  _522
REMARK  213  A    between atoms: _522  and  _523
REMARK  214  A    between atoms: _523  and  _524
REMARK  215  A    between atoms: _533  and  _535
REMARK  216  A    between atoms: _535  and  _536
REMARK  217  A    between atoms: _535  and  _538
REMARK  218  A    between atoms: _538  and  _539
REMARK                            x       y       z     vdW  Elec       q    Type
REMARK                         _______ _______ _______ _____ _____    ______ ____
ROOT
ATOM      1  NE  ARG A   1      21.544  37.507  24.045  0.00  0.00    -0.265 N 
ATOM      2  HE  ARG A   1      21.103  38.139  24.744  0.00  0.00    +0.259 HD
ATOM      3  CZ  ARG A   1      21.244  37.722  22.760  0.00  0.00    +0.342 C 
ATOM      4  NH2 ARG A   1      20.432  38.727  22.443  0.00  0.00    -0.292 N 
ATOM      5 HH21 ARG A   1      20.039  39.334  23.191  0.00  0.00    +0.255 HD
ATOM      6 HH22 ARG A   1      20.190  38.906  21.447  0.00  0.00    +0.255 HD
ATOM      7  NH1 ARG A   1      21.743  36.955  21.783  0.00  0.00    -0.292 N 
ATOM      8 HH11 ARG A   1      22.382  36.168  22.015  0.00  0.00    +0.255 HD
ATOM      9 HH12 ARG A   1      21.492  37.146  20.792  0.00  0.00    +0.255 HD
ENDROOT
BRANCH   1  10
ATOM     10  CD  ARG A   1      22.435  36.466  24.561  0.00  0.00    +0.174 C 
BRANCH  10  11
ATOM     11  CG  ARG A   1      21.706  35.398  25.363  0.00  0.00    +0.045 C 
BRANCH  11  12
ATOM     12  CB  ARG A   1      22.705  34.597  26.165  0.00  0.00    +0.029 C 
BRANCH  12  13
ATOM     13  CA  ARG A   1      22.090  33.571  27.113  0.00  0.00    +0.133 C 
BRANCH  13  14
ATOM     14  N   ARG A   1      21.387  34.229  28.215  0.00  0.00    -0.239 NA
ATOM     15  H   ARG A   1      21.319  35.267  28.235  0.00  0.00    +0.142 HD
ENDBRANCH  13  14
BRANCH  13  16
ATOM     16  C   ARG A   1      23.204  32.666  27.653  0.00  0.00    +0.224 C 
ATOM     17  O   ARG A   1      24.015  33.104  28.480  0.00  0.00    -0.287 OA
ENDBRANCH  13  16
ENDBRANCH  12  13
ENDBRANCH  11  12
ENDBRANCH  10  11
ENDBRANCH   1  10
TORSDOF 6
REMARK  Name = ../refined-set-2016/2qhy/2qhy_pocket.pdb
REMARK  218 active torsions:
REMARK  status: ('A' for Active; 'I' for Inactive)
REMARK    1  A    between atoms: _1  and  _3
REMARK    2  A    between atoms: _3  and  _4
REMARK    3  A    between atoms: _3  and  _6
REMARK    4  A    between atoms: _6  and  _7
REMARK    5  A    between atoms: _7  and  _8
REMARK    6  A    between atoms: _8  and  _9
REMARK    7  A    between atoms: _18  and  _20
REMARK    8  A    between atoms: _20  and  _21
REMARK    9  A    between atoms: _20  and  _23
REMARK   10  A    between atoms: _23  and  _24
REMARK   11  A    between atoms: _27  and  _29
REMARK   12  A    between atoms: _29  and  _30
REMARK   13  A    between atoms: _29  and  _32
REMARK   14  A    between atoms: _32  and  _33
REMARK   15  A    between atoms: _36  and  _38
REMARK   16  A    between atoms: _38  and  _39
REMARK   17  A    between atoms: _38  and  _41
REMARK   18  A    between atoms: _41  and  _42
REMARK   19  A    between atoms: _45  and  _47
REMARK   20  A    between atoms: _47  and  _48
REMARK   21  A    between atoms: _47  and  _50
REMARK   22  A    between atoms: _50  and  _51
REMARK   23  A    between atoms: _54  and  _56
REMARK   24  A    between atoms: _56  and  _57
REMARK   25  A    between atoms: _59  and  _61
REMARK   26  A    between atoms: _61  and  _62
REMARK   27  A    between atoms: _65  and  _67
REMARK   28  A    between atoms: _67  and  _68
REMARK   29  A    between atoms: _67  and  _70
REMARK   30  A    between atoms: _70  and  _71
REMARK   31  A    between atoms: _74  and  _76
REMARK   32  A    between atoms: _76  and  _77
REMARK   33  A    between atoms: _76  and  _79
REMARK   34  A    between atoms: _79  and  _80
REMARK   35  A    between atoms: _83  and  _85
REMARK   36  A    between atoms: _85  and  _86
REMARK   37  A    between atoms: _85  and  _88
REMARK   38  A    between atoms: _88  and  _89
REMARK   39  A    between atoms: _92  and  _94
REMARK   40  A    between atoms: _94  and  _95
REMARK   41  A    between atoms: _94  and  _97
REMARK   42  A    between atoms: _100  and  _102
REMARK   43  A    between atoms: _102  and  _103
REMARK   44  A    between atoms: _102  and  _105
REMARK   45  A    between atoms: _105  and  _106
REMARK   46  A    between atoms: _109  and  _111
REMARK   47  A    between atoms: _111  and  _112
REMARK   48  A    between atoms: _114  and  _116
REMARK   49  A    between atoms: _116  and  _117
REMARK   50  A    between atoms: _119  and  _121
REMARK   51  A    between atoms: _121  and  _122
REMARK   52  A    between atoms: _121  and  _124
REMARK   53  A    between atoms: _124  and  _125
REMARK   54  A    between atoms: _128  and  _130
REMARK   55  A    between atoms: _130  and  _131
REMARK   56  A    between atoms: _133  and  _135
REMARK   57  A    between atoms: _135  and  _136
REMARK   58  A    between atoms: _138  and  _140
REMARK   59  A    between atoms: _140  and  _141
REMARK   60  A    between atoms: _140  and  _143
REMARK   61  A    between atoms: _143  and  _144
REMARK   62  A    between atoms: _150  and  _152
REMARK   63  A    between atoms: _152  and  _153
REMARK   64  A    between atoms: _152  and  _155
REMARK   65  A    between atoms: _155  and  _156
REMARK   66  A    between atoms: _159  and  _161
REMARK   67  A    between atoms: _161  and  _162
REMARK   68  A    between atoms: _161  and  _164
REMARK   69  A    between atoms: _164  and  _165
REMARK   70  A    between atoms: _169  and  _170
REMARK   71  A    between atoms: _175  and  _177
REMARK   72  A    between atoms: _177  and  _178
REMARK   73  A    between atoms: _177  and  _180
REMARK   74  A    between atoms: _180  and  _181
REMARK   75  A    between atoms: _185  and  _186
REMARK   76  A    between atoms: _191  and  _193
REMARK   77  A    between atoms: _193  and  _194
REMARK   78  A    between atoms: _193  and  _196
REMARK   79  A    between atoms: _199  and  _201
REMARK   80  A    between atoms: _201  and  _202
REMARK   81  A    between atoms: _201  and  _204
REMARK   82  A    between atoms: _204  and  _205
REMARK   83  A    between atoms: _210  and  _212
REMARK   84  A    between atoms: _212  and  _213
REMARK   85  A    between atoms: _212  and  _215
REMARK   86  A    between atoms: _215  and  _216
REMARK   87  A    between atoms: _219  and  _221
REMARK   88  A    between atoms: _221  and  _222
REMARK   89  A    between atoms: _221  and  _224
REMARK   90  A    between atoms: _224  and  _225
REMARK   91  A    between atoms: _228  and  _230
REMARK   92  A    between atoms: _230  and  _231
REMARK   93  A    between atoms: _233  and  _235
REMARK   94  A    between atoms: _235  and  _236
REMARK   95  A    between atoms: _235  and  _238
REMARK   96  A    between atoms: _238  and  _239
REMARK   97  A    between atoms: _239  and  _240
REMARK   98  A    between atoms: _240  and  _241
REMARK   99  A    between atoms: _250  and  _252
REMARK  100  A    between atoms: _252  and  _253
REMARK  101  A    between atoms: _252  and  _255
REMARK  102  A    between atoms: _255  and  _256
REMARK  103  A    between atoms: _261  and  _263
REMARK  104  A    between atoms: _263  and  _264
REMARK  105  A    between atoms: _263  and  _266
REMARK  106  A    between atoms: _266  and  _267
REMARK  107  A    between atoms: _267  and  _268
REMARK  108  A    between atoms: _268  and  _269
REMARK  109  A    between atoms: _278  and  _280
REMARK  110  A    between atoms: _280  and  _281
REMARK  111  A    between atoms: _280  and  _283
REMARK  112  A    between atoms: _283  and  _284
REMARK  113  A    between atoms: _287  and  _289
REMARK  114  A    between atoms: _289  and  _290
REMARK  115  A    between atoms: _289  and  _292
REMARK  116  A    between atoms: _292  and  _293
REMARK  117  A    between atoms: _296  and  _298
REMARK  118  A    between atoms: _298  and  _299
REMARK  119  A    between atoms: _298  and  _301
REMARK  120  A    between atoms: _301  and  _302
REMARK  121  A    between atoms: _305  and  _307
REMARK  122  A    between atoms: _307  and  _308
REMARK  123  A    between atoms: _307  and  _310
REMARK  124  A    between atoms: _310  and  _311
REMARK  125  A    between atoms: _314  and  _316
REMARK  126  A    between atoms: _316  and  _317
REMARK  127  A    between atoms: _319  and  _321
REMARK  128  A    between atoms: _321  and  _322
REMARK  129  A    between atoms: _325  and  _327
REMARK  130  A    between atoms: _327  and  _328
REMARK  131  A    between atoms: _327  and  _330
REMARK  132  A    between atoms: _330  and  _331
REMARK  133  A    between atoms: _334  and  _336
REMARK  134  A    between atoms: _336  and  _337
REMARK  135  A    between atoms: _336  and  _339
REMARK  136  A    between atoms: _339  and  _340
REMARK  137  A    between atoms: _343  and  _345
REMARK  138  A    between atoms: _345  and  _346
REMARK  139  A    between atoms: _345  and  _348
REMARK  140  A    between atoms: _348  and  _349
REMARK  141  A    between atoms: _352  and  _354
REMARK  142  A    between atoms: _354  and  _355
REMARK  143  A    between atoms: _354  and  _357
REMARK  144  A    between atoms: _360  and  _362
REMARK  145  A    between atoms: _362  and  _363
REMARK  146  A    between atoms: _362  and  _365
REMARK  147  A    between atoms: _365  and  _366
REMARK  148  A    between atoms: _366  and  _367
REMARK  149  A    between atoms: _367  and  _368
REMARK  150  A    between atoms: _368  and  _369
REMARK  151  A    between atoms: _373  and  _375
REMARK  152  A    between atoms: _375  and  _376
REMARK  153  A    between atoms: _375  and  _378
REMARK  154  A    between atoms: _378  and  _379
REMARK  155  A    between atoms: _379  and  _380
REMARK  156  A    between atoms: _382  and  _384
REMARK  157  A    between atoms: _384  and  _385
REMARK  158  A    between atoms: _384  and  _387
REMARK  159  A    between atoms: _387  and  _388
REMARK  160  A    between atoms: _391  and  _393
REMARK  161  A    between atoms: _393  and  _394
REMARK  162  A    between atoms: _396  and  _398
REMARK  163  A    between atoms: _398  and  _399
REMARK  164  A    between atoms: _401  and  _403
REMARK  165  A    between atoms: _403  and  _404
REMARK  166  A    between atoms: _403  and  _406
REMARK  167  A    between atoms: _406  and  _407
REMARK  168  A    between atoms: _410  and  _412
REMARK  169  A    between atoms: _412  and  _413
REMARK  170  A    between atoms: _415  and  _417
REMARK  171  A    between atoms: _417  and  _418
REMARK  172  A    between atoms: _420  and  _422
REMARK  173  A    between atoms: _422  and  _423
REMARK  174  A    between atoms: _422  and  _425
REMARK  175  A    between atoms: _425  and  _426
REMARK  176  A    between atoms: _432  and  _434
REMARK  177  A    between atoms: _434  and  _435
REMARK  178  A    between atoms: _434  and  _437
REMARK  179  A    between atoms: _437  and  _438
REMARK  180  A    between atoms: _441  and  _443
REMARK  181  A    between atoms: _443  and  _444
REMARK  182  A    between atoms: _443  and  _446
REMARK  183  A    between atoms: _449  and  _451
REMARK  184  A    between atoms: _451  and  _452
REMARK  185  A    between atoms: _451  and  _454
REMARK  186  A    between atoms: _454  and  _455
REMARK  187  A    between atoms: _458  and  _460
REMARK  188  A    between atoms: _460  and  _461
REMARK  189  A    between atoms: _460  and  _463
REMARK  190  A    between atoms: _463  and  _464
REMARK  191  A    between atoms: _468  and  _469
REMARK  192  A    between atoms: _474  and  _476
REMARK  193  A    between atoms: _476  and  _477
REMARK  194  A    between atoms: _476  and  _479
REMARK  195  A    between atoms: _482  and  _484
REMARK  196  A    between atoms: _484  and  _485
REMARK  197  A    between atoms: _484  and  _487
REMARK  198  A    between atoms: _487  and  _488
REMARK  199  A    between atoms: _493  and  _495
REMARK  200  A    between atoms: _495  and  _496
REMARK  201  A    between atoms: _495  and  _498
REMARK  202  A    between atoms: _498  and  _499
REMARK  203  A    between atoms: _502  and  _504
REMARK  204  A    between atoms: _504  and  _505
REMARK  205  A    between atoms: _504  and  _507
REMARK  206  A    between atoms: _507  and  _508
REMARK  207  A    between atoms: _511  and  _513
REMARK  208  A    between atoms: _513  and  _514
REMARK  209  A    between atoms: _516  and  _518
REMARK  210  A    between atoms: _518  and  _519
REMARK  211  A    between atoms: _518  and  _521
REMARK  212  A    between atoms: _521  and  _522
REMARK  213  A    between atoms: _522  and  _523
REMARK  214  A    between atoms: _523  and  _524
REMARK  215  A    between atoms: _533  and  _535
REMARK  216  A    between atoms: _535  and  _536
REMARK  217  A    between atoms: _535  and  _538
REMARK  218  A    between atoms: _538  and  _539
REMARK                            x       y       z     vdW  Elec       q    Type
REMARK                         _______ _______ _______ _____ _____    ______ ____
ROOT
ATOM      1  C   GLY A   5      20.749  25.390  15.980  0.00  0.00    +0.243 C 
ATOM      2  N   ALA A   6      22.046  25.263  16.231  0.00  0.00    -0.297 N 
ATOM      3  H   ALA A   6      22.359  25.123  17.213  0.00  0.00    +0.150 HD
ATOM      4  O   GLY A   5      20.313  25.690  14.867  0.00  0.00    -0.273 OA
ENDROOT
BRANCH   2   5
ATOM      5  CA  ALA A   6      23.050  25.314  15.165  0.00  0.00    +0.149 C 
ATOM      6  CB  ALA A   6      24.132  26.333  15.490  0.00  0.00    +0.031 C 
BRANCH   5   7
ATOM      7  C   ALA A   6      23.691  23.950  14.912  0.00  0.00    +0.241 C 
ATOM      8  O   ALA A   6      24.266  23.328  15.825  0.00  0.00    -0.273 OA
ATOM      9  N   ASP A   7      23.641  23.525  13.654  0.00  0.00    -0.297 N 
ATOM     10  H   ASP A   7      23.092  24.073  12.961  0.00  0.00    +0.150 HD
BRANCH   9  11
ATOM     11  CA  ASP A   7      24.332  22.313  13.208  0.00  0.00    +0.160 C 
BRANCH  11  12
ATOM     12  C   ASP A   7      25.844  22.430  13.398  0.00  0.00    +0.241 C 
ATOM     13  O   ASP A   7      26.515  21.472  13.801  0.00  0.00    -0.273 OA
ATOM     14  N   ASP A   8      26.364  23.617  13.092  0.00  0.00    -0.297 N 
ATOM     15  H   ASP A   8      25.716  24.414  12.928  0.00  0.00    +0.150 HD
BRANCH  14  16
ATOM     16  CA  ASP A   8      27.798  23.854  12.976  0.00  0.00    +0.160 C 
BRANCH  16  17
ATOM     17  C   ASP A   8      28.245  24.962  13.918  0.00  0.00    +0.241 C 
ATOM     18  O   ASP A   8      27.441  25.773  14.360  0.00  0.00    -0.273 OA
ATOM     19  N   THR A   9      29.542  24.997  14.189  0.00  0.00    -0.295 N 
ATOM     20  H   THR A   9      30.147  24.240  13.810  0.00  0.00    +0.150 HD
BRANCH  19  21
ATOM     21  CA  THR A   9      30.159  26.036  14.986  0.00  0.00    +0.176 C 
BRANCH  21  22
ATOM     22  C   THR A   9      30.577  27.181  14.051  0.00  0.00    +0.243 C 
ATOM     23  N   VAL A  10      30.125  28.396  14.365  0.00  0.00    -0.298 N 
ATOM     24  H   VAL A  10      29.567  28.523  15.233  0.00  0.00    +0.150 HD
ATOM     25  O   THR A   9      31.262  26.967  13.047  0.00  0.00    -0.273 OA
BRANCH  23  26
ATOM     26  CA  VAL A  10      30.398  29.551  13.515  0.00  0.00    +0.137 C 
BRANCH  26  27
ATOM     27  CB  VAL A  10      29.137  30.056  12.752  0.00  0.00    +0.026 C 
ATOM     28  CG2 VAL A  10      28.346  28.903  12.177  0.00  0.00    +0.002 C 
ATOM     29  CG1 VAL A  10      29.548  31.020  11.632  0.00  0.00    +0.002 C 
ENDBRANCH  26  27
BRANCH  26  30
ATOM     30  C   VAL A  10      30.965  30.677  14.376  0.00  0.00    +0.227 C 
ATOM     31  O   VAL A  10      30.326  31.121  15.341  0.00  0.00    -0.286 OA
ENDBRANCH  26  30
ENDBRANCH  23  26
ENDBRANCH  21  22
BRANCH  21  32
ATOM     32  CB  THR A   9      31.347  25.445  15.787  0.00  0.00    +0.137 C 
ATOM     33  CG2 THR A   9      32.138  26.523  16.521  0.00  0.00    +0.034 C 
BRANCH  32  34
ATOM     34  OG1 THR A   9      30.840  24.493  16.738  0.00  0.00    -0.382 OA
ATOM     35  HG1 THR A   9      30.366  23.769  16.257  0.00  0.00    +0.210 HD
ENDBRANCH  32  34
ENDBRANCH  21  32
ENDBRANCH  19  21
ENDBRANCH  16  17
BRANCH  16  36
ATOM     36  CB  ASP A   8      28.119  24.290  11.544  0.00  0.00    +0.143 C 
BRANCH  36  37
ATOM     37  CG  ASP A   8      27.577  23.347  10.505  0.00  0.00    +0.367 C 
ATOM     38  OD2 ASP A   8      27.935  22.154  10.542  0.00  0.00    -0.246 OA
ATOM     39  OD1 ASP A   8      26.809  23.805   9.626  0.00  0.00    -0.246 OA
ENDBRANCH  36  37
ENDBRANCH  16  36
ENDBRANCH  14  16
ENDBRANCH  11  12
BRANCH  11  40
ATOM     40  CB  ASP A   7      24.083  22.066  11.724  0.00  0.00    +0.143 C 
BRANCH  40  41
ATOM     41  CG  ASP A   7      22.631  21.835  11.387  0.00  0.00    +0.367 C 
ATOM     42  OD2 ASP A   7      21.802  21.586  12.298  0.00  0.00    -0.246 OA
ATOM     43  OD1 ASP A   7      22.330  21.894  10.177  0.00  0.00    -0.246 OA
ENDBRANCH  40  41
ENDBRANCH  11  40
ENDBRANCH   9  11
ENDBRANCH   5   7
ENDBRANCH   2   5
BRANCH   1  44
ATOM     44  CA  GLY A   5      19.791  25.173  17.136  0.00  0.00    +0.176 C 
BRANCH  44  46
ATOM     45  C   THR A   4      20.866  23.791  18.852  0.00  0.00    +0.243 C 
ATOM     46  N   GLY A   5      20.442  24.984  18.433  0.00  0.00    -0.295 N 
ATOM     47  H   GLY A   5      20.579  25.810  19.050  0.00  0.00    +0.150 HD
ATOM     48  O   THR A   4      20.665  22.753  18.216  0.00  0.00    -0.273 OA
BRANCH  45  49
ATOM     49  CA  THR A   4      21.624  23.749  20.194  0.00  0.00    +0.176 C 
BRANCH  49  51
ATOM     50  C   ASP A   3      23.112  25.643  19.891  0.00  0.00    +0.241 C 
ATOM     51  N   THR A   4      22.149  25.048  20.590  0.00  0.00    -0.295 N 
ATOM     52  H   THR A   4      21.765  25.519  21.434  0.00  0.00    +0.150 HD
ATOM     53  O   ASP A   3      23.608  25.154  18.861  0.00  0.00    -0.273 OA
BRANCH  50  54
ATOM     54  CA  ASP A   3      23.574  26.988  20.430  0.00  0.00    +0.160 C 
BRANCH  54  57
ATOM     55  C   LEU A   2      24.722  27.373  22.551  0.00  0.00    +0.241 C 
ATOM     56  O   LEU A   2      23.713  27.807  23.096  0.00  0.00    -0.273 OA
ATOM     57  N   ASP A   3      24.704  26.816  21.342  0.00  0.00    -0.297 N 
ATOM     58  H   ASP A   3      25.516  26.242  21.038  0.00  0.00    +0.150 HD
BRANCH  55  59
ATOM     59  CA  LEU A   2      26.078  27.470  23.252  0.00  0.00    +0.149 C 
BRANCH  59  61
ATOM     60  C   LEU A   1      26.817  29.628  22.407  0.00  0.00    +0.238 C 
ATOM     61  N   LEU A   2      26.420  28.878  23.433  0.00  0.00    -0.297 N 
ATOM     62  H   LEU A   2      26.352  29.302  24.380  0.00  0.00    +0.150 HD
ATOM     63  O   LEU A   1      27.029  29.152  21.284  0.00  0.00    -0.274 OA
BRANCH  60  64
ATOM     64  CA  LEU A   1      27.022  31.116  22.682  0.00  0.00    +0.145 C 
BRANCH  64  65
ATOM     65  N   LEU A   1      28.367  31.534  22.300  0.00  0.00    -0.238 NA
ATOM     66  H   LEU A   1      28.534  31.809  21.311  0.00  0.00    +0.142 HD
ENDBRANCH  64  65
BRANCH  64  67
ATOM     67  CB  LEU A   1      26.013  31.955  21.878  0.00  0.00    +0.026 C 
BRANCH  67  68
ATOM     68  CG  LEU A   1      24.520  31.695  22.103  0.00  0.00    +0.002 C 
ATOM     69  CD2 LEU A   1      24.147  32.054  23.525  0.00  0.00    +0.000 C 
ATOM     70  CD1 LEU A   1      23.686  32.481  21.090  0.00  0.00    +0.000 C 
ENDBRANCH  67  68
ENDBRANCH  64  67
ENDBRANCH  60  64
ENDBRANCH  59  61
BRANCH  59  71
ATOM     71  CB  LEU A   2      26.032  26.760  24.594  0.00  0.00    +0.029 C 
BRANCH  71  72
ATOM     72  CG  LEU A   2      27.313  26.844  25.424  0.00  0.00    +0.002 C 
ATOM     73  CD2 LEU A   2      27.128  26.011  26.704  0.00  0.00    +0.000 C 
ATOM     74  CD1 LEU A   2      28.516  26.350  24.625  0.00  0.00    +0.000 C 
ENDBRANCH  71  72
ENDBRANCH  59  71
ENDBRANCH  55  59
ENDBRANCH  54  57
BRANCH  54  75
ATOM     75  CB  ASP A   3      23.986  27.927  19.286  0.00  0.00    +0.143 C 
BRANCH  75  76
ATOM     76  CG  ASP A   3      22.841  28.295  18.362  0.00  0.00    +0.367 C 
ATOM     77  OD2 ASP A   3      21.692  27.810  18.537  0.00  0.00    -0.246 OA
ATOM     78  OD1 ASP A   3      23.112  29.087  17.440  0.00  0.00    -0.246 OA
ENDBRANCH  75  76
ENDBRANCH  54  75
ENDBRANCH  50  54
ENDBRANCH  49  51
BRANCH  49  79
ATOM     79  CB  THR A   4      20.710  23.157  21.286  0.00  0.00    +0.137 C 
ATOM     80  CG2 THR A   4      21.510  22.881  22.572  0.00  0.00    +0.034 C 
BRANCH  79  81
ATOM     81  OG1 THR A   4      19.618  24.054  21.562  0.00  0.00    -0.382 OA
ATOM     82  HG1 THR A   4      19.089  24.192  20.736  0.00  0.00    +0.210 HD
ENDBRANCH  79  81
ENDBRANCH  49  79
ENDBRANCH  45  49
ENDBRANCH  44  46
ENDBRANCH   1  44
TORSDOF 35
REMARK  Name = ../refined-set-2016/2qhy/2qhy_pocket.pdb
REMARK  218 active torsions:
REMARK  status: ('A' for Active; 'I' for Inactive)
REMARK    1  A    between atoms: _1  and  _3
REMARK    2  A    between atoms: _3  and  _4
REMARK    3  A    between atoms: _3  and  _6
REMARK    4  A    between atoms: _6  and  _7
REMARK    5  A    between atoms: _7  and  _8
REMARK    6  A    between atoms: _8  and  _9
REMARK    7  A    between atoms: _18  and  _20
REMARK    8  A    between atoms: _20  and  _21
REMARK    9  A    between atoms: _20  and  _23
REMARK   10  A    between atoms: _23  and  _24
REMARK   11  A    between atoms: _27  and  _29
REMARK   12  A    between atoms: _29  and  _30
REMARK   13  A    between atoms: _29  and  _32
REMARK   14  A    between atoms: _32  and  _33
REMARK   15  A    between atoms: _36  and  _38
REMARK   16  A    between atoms: _38  and  _39
REMARK   17  A    between atoms: _38  and  _41
REMARK   18  A    between atoms: _41  and  _42
REMARK   19  A    between atoms: _45  and  _47
REMARK   20  A    between atoms: _47  and  _48
REMARK   21  A    between atoms: _47  and  _50
REMARK   22  A    between atoms: _50  and  _51
REMARK   23  A    between atoms: _54  and  _56
REMARK   24  A    between atoms: _56  and  _57
REMARK   25  A    between atoms: _59  and  _61
REMARK   26  A    between atoms: _61  and  _62
REMARK   27  A    between atoms: _65  and  _67
REMARK   28  A    between atoms: _67  and  _68
REMARK   29  A    between atoms: _67  and  _70
REMARK   30  A    between atoms: _70  and  _71
REMARK   31  A    between atoms: _74  and  _76
REMARK   32  A    between atoms: _76  and  _77
REMARK   33  A    between atoms: _76  and  _79
REMARK   34  A    between atoms: _79  and  _80
REMARK   35  A    between atoms: _83  and  _85
REMARK   36  A    between atoms: _85  and  _86
REMARK   37  A    between atoms: _85  and  _88
REMARK   38  A    between atoms: _88  and  _89
REMARK   39  A    between atoms: _92  and  _94
REMARK   40  A    between atoms: _94  and  _95
REMARK   41  A    between atoms: _94  and  _97
REMARK   42  A    between atoms: _100  and  _102
REMARK   43  A    between atoms: _102  and  _103
REMARK   44  A    between atoms: _102  and  _105
REMARK   45  A    between atoms: _105  and  _106
REMARK   46  A    between atoms: _109  and  _111
REMARK   47  A    between atoms: _111  and  _112
REMARK   48  A    between atoms: _114  and  _116
REMARK   49  A    between atoms: _116  and  _117
REMARK   50  A    between atoms: _119  and  _121
REMARK   51  A    between atoms: _121  and  _122
REMARK   52  A    between atoms: _121  and  _124
REMARK   53  A    between atoms: _124  and  _125
REMARK   54  A    between atoms: _128  and  _130
REMARK   55  A    between atoms: _130  and  _131
REMARK   56  A    between atoms: _133  and  _135
REMARK   57  A    between atoms: _135  and  _136
REMARK   58  A    between atoms: _138  and  _140
REMARK   59  A    between atoms: _140  and  _141
REMARK   60  A    between atoms: _140  and  _143
REMARK   61  A    between atoms: _143  and  _144
REMARK   62  A    between atoms: _150  and  _152
REMARK   63  A    between atoms: _152  and  _153
REMARK   64  A    between atoms: _152  and  _155
REMARK   65  A    between atoms: _155  and  _156
REMARK   66  A    between atoms: _159  and  _161
REMARK   67  A    between atoms: _161  and  _162
REMARK   68  A    between atoms: _161  and  _164
REMARK   69  A    between atoms: _164  and  _165
REMARK   70  A    between atoms: _169  and  _170
REMARK   71  A    between atoms: _175  and  _177
REMARK   72  A    between atoms: _177  and  _178
REMARK   73  A    between atoms: _177  and  _180
REMARK   74  A    between atoms: _180  and  _181
REMARK   75  A    between atoms: _185  and  _186
REMARK   76  A    between atoms: _191  and  _193
REMARK   77  A    between atoms: _193  and  _194
REMARK   78  A    between atoms: _193  and  _196
REMARK   79  A    between atoms: _199  and  _201
REMARK   80  A    between atoms: _201  and  _202
REMARK   81  A    between atoms: _201  and  _204
REMARK   82  A    between atoms: _204  and  _205
REMARK   83  A    between atoms: _210  and  _212
REMARK   84  A    between atoms: _212  and  _213
REMARK   85  A    between atoms: _212  and  _215
REMARK   86  A    between atoms: _215  and  _216
REMARK   87  A    between atoms: _219  and  _221
REMARK   88  A    between atoms: _221  and  _222
REMARK   89  A    between atoms: _221  and  _224
REMARK   90  A    between atoms: _224  and  _225
REMARK   91  A    between atoms: _228  and  _230
REMARK   92  A    between atoms: _230  and  _231
REMARK   93  A    between atoms: _233  and  _235
REMARK   94  A    between atoms: _235  and  _236
REMARK   95  A    between atoms: _235  and  _238
REMARK   96  A    between atoms: _238  and  _239
REMARK   97  A    between atoms: _239  and  _240
REMARK   98  A    between atoms: _240  and  _241
REMARK   99  A    between atoms: _250  and  _252
REMARK  100  A    between atoms: _252  and  _253
REMARK  101  A    between atoms: _252  and  _255
REMARK  102  A    between atoms: _255  and  _256
REMARK  103  A    between atoms: _261  and  _263
REMARK  104  A    between atoms: _263  and  _264
REMARK  105  A    between atoms: _263  and  _266
REMARK  106  A    between atoms: _266  and  _267
REMARK  107  A    between atoms: _267  and  _268
REMARK  108  A    between atoms: _268  and  _269
REMARK  109  A    between atoms: _278  and  _280
REMARK  110  A    between atoms: _280  and  _281
REMARK  111  A    between atoms: _280  and  _283
REMARK  112  A    between atoms: _283  and  _284
REMARK  113  A    between atoms: _287  and  _289
REMARK  114  A    between atoms: _289  and  _290
REMARK  115  A    between atoms: _289  and  _292
REMARK  116  A    between atoms: _292  and  _293
REMARK  117  A    between atoms: _296  and  _298
REMARK  118  A    between atoms: _298  and  _299
REMARK  119  A    between atoms: _298  and  _301
REMARK  120  A    between atoms: _301  and  _302
REMARK  121  A    between atoms: _305  and  _307
REMARK  122  A    between atoms: _307  and  _308
REMARK  123  A    between atoms: _307  and  _310
REMARK  124  A    between atoms: _310  and  _311
REMARK  125  A    between atoms: _314  and  _316
REMARK  126  A    between atoms: _316  and  _317
REMARK  127  A    between atoms: _319  and  _321
REMARK  128  A    between atoms: _321  and  _322
REMARK  129  A    between atoms: _325  and  _327
REMARK  130  A    between atoms: _327  and  _328
REMARK  131  A    between atoms: _327  and  _330
REMARK  132  A    between atoms: _330  and  _331
REMARK  133  A    between atoms: _334  and  _336
REMARK  134  A    between atoms: _336  and  _337
REMARK  135  A    between atoms: _336  and  _339
REMARK  136  A    between atoms: _339  and  _340
REMARK  137  A    between atoms: _343  and  _345
REMARK  138  A    between atoms: _345  and  _346
REMARK  139  A    between atoms: _345  and  _348
REMARK  140  A    between atoms: _348  and  _349
REMARK  141  A    between atoms: _352  and  _354
REMARK  142  A    between atoms: _354  and  _355
REMARK  143  A    between atoms: _354  and  _357
REMARK  144  A    between atoms: _360  and  _362
REMARK  145  A    between atoms: _362  and  _363
REMARK  146  A    between atoms: _362  and  _365
REMARK  147  A    between atoms: _365  and  _366
REMARK  148  A    between atoms: _366  and  _367
REMARK  149  A    between atoms: _367  and  _368
REMARK  150  A    between atoms: _368  and  _369
REMARK  151  A    between atoms: _373  and  _375
REMARK  152  A    between atoms: _375  and  _376
REMARK  153  A    between atoms: _375  and  _378
REMARK  154  A    between atoms: _378  and  _379
REMARK  155  A    between atoms: _379  and  _380
REMARK  156  A    between atoms: _382  and  _384
REMARK  157  A    between atoms: _384  and  _385
REMARK  158  A    between atoms: _384  and  _387
REMARK  159  A    between atoms: _387  and  _388
REMARK  160  A    between atoms: _391  and  _393
REMARK  161  A    between atoms: _393  and  _394
REMARK  162  A    between atoms: _396  and  _398
REMARK  163  A    between atoms: _398  and  _399
REMARK  164  A    between atoms: _401  and  _403
REMARK  165  A    between atoms: _403  and  _404
REMARK  166  A    between atoms: _403  and  _406
REMARK  167  A    between atoms: _406  and  _407
REMARK  168  A    between atoms: _410  and  _412
REMARK  169  A    between atoms: _412  and  _413
REMARK  170  A    between atoms: _415  and  _417
REMARK  171  A    between atoms: _417  and  _418
REMARK  172  A    between atoms: _420  and  _422
REMARK  173  A    between atoms: _422  and  _423
REMARK  174  A    between atoms: _422  and  _425
REMARK  175  A    between atoms: _425  and  _426
REMARK  176  A    between atoms: _432  and  _434
REMARK  177  A    between atoms: _434  and  _435
REMARK  178  A    between atoms: _434  and  _437
REMARK  179  A    between atoms: _437  and  _438
REMARK  180  A    between atoms: _441  and  _443
REMARK  181  A    between atoms: _443  and  _444
REMARK  182  A    between atoms: _443  and  _446
REMARK  183  A    between atoms: _449  and  _451
REMARK  184  A    between atoms: _451  and  _452
REMARK  185  A    between atoms: _451  and  _454
REMARK  186  A    between atoms: _454  and  _455
REMARK  187  A    between atoms: _458  and  _460
REMARK  188  A    between atoms: _460  and  _461
REMARK  189  A    between atoms: _460  and  _463
REMARK  190  A    between atoms: _463  and  _464
REMARK  191  A    between atoms: _468  and  _469
REMARK  192  A    between atoms: _474  and  _476
REMARK  193  A    between atoms: _476  and  _477
REMARK  194  A    between atoms: _476  and  _479
REMARK  195  A    between atoms: _482  and  _484
REMARK  196  A    between atoms: _484  and  _485
REMARK  197  A    between atoms: _484  and  _487
REMARK  198  A    between atoms: _487  and  _488
REMARK  199  A    between atoms: _493  and  _495
REMARK  200  A    between atoms: _495  and  _496
REMARK  201  A    between atoms: _495  and  _498
REMARK  202  A    between atoms: _498  and  _499
REMARK  203  A    between atoms: _502  and  _504
REMARK  204  A    between atoms: _504  and  _505
REMARK  205  A    between atoms: _504  and  _507
REMARK  206  A    between atoms: _507  and  _508
REMARK  207  A    between atoms: _511  and  _513
REMARK  208  A    between atoms: _513  and  _514
REMARK  209  A    between atoms: _516  and  _518
REMARK  210  A    between atoms: _518  and  _519
REMARK  211  A    between atoms: _518  and  _521
REMARK  212  A    between atoms: _521  and  _522
REMARK  213  A    between atoms: _522  and  _523
REMARK  214  A    between atoms: _523  and  _524
REMARK  215  A    between atoms: _533  and  _535
REMARK  216  A    between atoms: _535  and  _536
REMARK  217  A    between atoms: _535  and  _538
REMARK  218  A    between atoms: _538  and  _539
REMARK                            x       y       z     vdW  Elec       q    Type
REMARK                         _______ _______ _______ _____ _____    ______ ____
ROOT
ATOM      1  C   ILE A   4      16.836  33.600   8.561  0.00  0.00    +0.241 C 
ATOM      2  N   GLY A   5      17.895  34.320   8.187  0.00  0.00    -0.295 N 
ATOM      3  H   GLY A   5      18.825  34.101   8.599  0.00  0.00    +0.150 HD
ATOM      4  O   ILE A   4      15.728  33.713   8.041  0.00  0.00    -0.273 OA
ENDROOT
BRANCH   2   5
ATOM      5  CA  GLY A   5      17.789  35.407   7.217  0.00  0.00    +0.176 C 
BRANCH   5   6
ATOM      6  C   GLY A   5      18.266  35.089   5.811  0.00  0.00    +0.243 C 
ATOM      7  N   GLY A   6      18.733  33.864   5.593  0.00  0.00    -0.295 N 
ATOM      8  H   GLY A   6      18.705  33.171   6.368  0.00  0.00    +0.150 HD
ATOM      9  O   GLY A   5      18.204  35.947   4.933  0.00  0.00    -0.273 OA
BRANCH   7  10
ATOM     10  CA  GLY A   6      19.283  33.457   4.305  0.00  0.00    +0.176 C 
BRANCH  10  11
ATOM     11  C   GLY A   6      20.640  32.802   4.458  0.00  0.00    +0.243 C 
ATOM     12  O   GLY A   6      20.987  32.299   5.534  0.00  0.00    -0.273 OA
ATOM     13  N   PHE A   7      21.427  32.829   3.386  0.00  0.00    -0.297 N 
ATOM     14  H   PHE A   7      21.114  33.342   2.537  0.00  0.00    +0.150 HD
BRANCH  13  15
ATOM     15  CA  PHE A   7      22.719  32.155   3.377  0.00  0.00    +0.153 C 
BRANCH  15  16
ATOM     16  C   PHE A   7      23.893  33.124   3.417  0.00  0.00    +0.241 C 
ATOM     17  N   ILE A   8      24.988  32.660   4.019  0.00  0.00    -0.298 N 
ATOM     18  H   ILE A   8      24.936  31.744   4.508  0.00  0.00    +0.150 HD
ATOM     19  O   PHE A   7      23.809  34.243   2.900  0.00  0.00    -0.273 OA
BRANCH  17  20
ATOM     20  CA  ILE A   8      26.255  33.379   4.022  0.00  0.00    +0.137 C 
BRANCH  20  21
ATOM     21  C   ILE A   8      27.407  32.477   3.546  0.00  0.00    +0.227 C 
ATOM     22  O   ILE A   8      27.300  31.253   3.560  0.00  0.00    -0.286 OA
ENDBRANCH  20  21
BRANCH  20  23
ATOM     23  CB  ILE A   8      26.600  33.939   5.429  0.00  0.00    +0.026 C 
ATOM     24  CG2 ILE A   8      25.509  34.922   5.897  0.00  0.00    +0.002 C 
BRANCH  23  25
ATOM     25  CG1 ILE A   8      26.816  32.808   6.435  0.00  0.00    +0.002 C 
ATOM     26  CD1 ILE A   8      27.437  33.269   7.744  0.00  0.00    +0.000 C 
ENDBRANCH  23  25
ENDBRANCH  20  23
ENDBRANCH  17  20
ENDBRANCH  15  16
BRANCH  15  27
ATOM     27  CB  PHE A   7      22.837  31.248   2.150  0.00  0.00    +0.055 C 
BRANCH  27  28
ATOM     28  CG  PHE A   7      22.045  29.982   2.276  0.00  0.00    -0.020 A 
ATOM     29  CD2 PHE A   7      22.675  28.775   2.537  0.00  0.00    -0.004 A 
ATOM     30  CE2 PHE A   7      21.938  27.606   2.669  0.00  0.00    -0.000 A 
ATOM     31  CZ  PHE A   7      20.567  27.643   2.558  0.00  0.00    -0.000 A 
ATOM     32  CE1 PHE A   7      19.926  28.843   2.323  0.00  0.00    -0.000 A 
ATOM     33  CD1 PHE A   7      20.666  30.008   2.182  0.00  0.00    -0.004 A 
ENDBRANCH  27  28
ENDBRANCH  15  27
ENDBRANCH  13  15
ENDBRANCH  10  11
ENDBRANCH   7  10
ENDBRANCH   5   6
ENDBRANCH   2   5
BRANCH   1  34
ATOM     34  CA  ILE A   4      17.050  32.579   9.678  0.00  0.00    +0.149 C 
BRANCH  34  36
ATOM     35  C   GLY A   3      18.901  31.379   8.708  0.00  0.00    +0.243 C 
ATOM     36  N   ILE A   4      18.417  32.111   9.696  0.00  0.00    -0.297 N 
ATOM     37  H   ILE A   4      19.030  32.354  10.500  0.00  0.00    +0.150 HD
ATOM     38  O   GLY A   3      18.280  31.168   7.647  0.00  0.00    -0.273 OA
BRANCH  35  39
ATOM     39  CA  GLY A   3      20.289  30.825   8.937  0.00  0.00    +0.176 C 
BRANCH  39  42
ATOM     40  C   GLY A   2      21.527  29.293   7.492  0.00  0.00    +0.243 C 
ATOM     41  O   GLY A   2      21.771  28.479   8.411  0.00  0.00    -0.273 OA
ATOM     42  N   GLY A   3      20.862  30.423   7.659  0.00  0.00    -0.295 N 
ATOM     43  H   GLY A   3      20.742  31.054   6.841  0.00  0.00    +0.150 HD
BRANCH  40  44
ATOM     44  CA  GLY A   2      21.976  29.051   6.068  0.00  0.00    +0.176 C 
BRANCH  44  46
ATOM     45  C   ILE A   1      24.339  28.876   5.578  0.00  0.00    +0.238 C 
ATOM     46  N   GLY A   2      23.214  28.312   5.997  0.00  0.00    -0.296 N 
ATOM     47  H   GLY A   2      23.224  27.312   6.282  0.00  0.00    +0.150 HD
ATOM     48  O   ILE A   1      24.437  30.069   5.248  0.00  0.00    -0.274 OA
BRANCH  45  49
ATOM     49  CA  ILE A   1      25.536  27.959   5.537  0.00  0.00    +0.145 C 
BRANCH  49  50
ATOM     50  N   ILE A   1      26.497  28.446   4.542  0.00  0.00    -0.238 NA
ATOM     51  H   ILE A   1      26.702  29.464   4.490  0.00  0.00    +0.142 HD
ENDBRANCH  49  50
BRANCH  49  52
ATOM     52  CB  ILE A   1      26.133  27.861   6.949  0.00  0.00    +0.025 C 
ATOM     53  CG2 ILE A   1      27.208  26.786   7.007  0.00  0.00    +0.002 C 
BRANCH  52  54
ATOM     54  CG1 ILE A   1      26.704  29.213   7.406  0.00  0.00    +0.002 C 
ATOM     55  CD1 ILE A   1      27.247  29.165   8.800  0.00  0.00    +0.000 C 
ENDBRANCH  52  54
ENDBRANCH  49  52
ENDBRANCH  45  49
ENDBRANCH  44  46
ENDBRANCH  40  44
ENDBRANCH  39  42
ENDBRANCH  35  39
ENDBRANCH  34  36
BRANCH  34  56
ATOM     56  CB  ILE A   4      16.639  33.155  11.062  0.00  0.00    +0.027 C 
ATOM     57  CG2 ILE A   4      17.211  34.559  11.265  0.00  0.00    +0.002 C 
BRANCH  56  58
ATOM     58  CG1 ILE A   4      15.116  33.134  11.225  0.00  0.00    +0.002 C 
ATOM     59  CD1 ILE A   4      14.657  33.491  12.624  0.00  0.00    +0.000 C 
ENDBRANCH  56  58
ENDBRANCH  34  56
ENDBRANCH   1  34
TORSDOF 24
REMARK  Name = ../refined-set-2016/2qhy/2qhy_pocket.pdb
REMARK  218 active torsions:
REMARK  status: ('A' for Active; 'I' for Inactive)
REMARK    1  A    between atoms: _1  and  _3
REMARK    2  A    between atoms: _3  and  _4
REMARK    3  A    between atoms: _3  and  _6
REMARK    4  A    between atoms: _6  and  _7
REMARK    5  A    between atoms: _7  and  _8
REMARK    6  A    between atoms: _8  and  _9
REMARK    7  A    between atoms: _18  and  _20
REMARK    8  A    between atoms: _20  and  _21
REMARK    9  A    between atoms: _20  and  _23
REMARK   10  A    between atoms: _23  and  _24
REMARK   11  A    between atoms: _27  and  _29
REMARK   12  A    between atoms: _29  and  _30
REMARK   13  A    between atoms: _29  and  _32
REMARK   14  A    between atoms: _32  and  _33
REMARK   15  A    between atoms: _36  and  _38
REMARK   16  A    between atoms: _38  and  _39
REMARK   17  A    between atoms: _38  and  _41
REMARK   18  A    between atoms: _41  and  _42
REMARK   19  A    between atoms: _45  and  _47
REMARK   20  A    between atoms: _47  and  _48
REMARK   21  A    between atoms: _47  and  _50
REMARK   22  A    between atoms: _50  and  _51
REMARK   23  A    between atoms: _54  and  _56
REMARK   24  A    between atoms: _56  and  _57
REMARK   25  A    between atoms: _59  and  _61
REMARK   26  A    between atoms: _61  and  _62
REMARK   27  A    between atoms: _65  and  _67
REMARK   28  A    between atoms: _67  and  _68
REMARK   29  A    between atoms: _67  and  _70
REMARK   30  A    between atoms: _70  and  _71
REMARK   31  A    between atoms: _74  and  _76
REMARK   32  A    between atoms: _76  and  _77
REMARK   33  A    between atoms: _76  and  _79
REMARK   34  A    between atoms: _79  and  _80
REMARK   35  A    between atoms: _83  and  _85
REMARK   36  A    between atoms: _85  and  _86
REMARK   37  A    between atoms: _85  and  _88
REMARK   38  A    between atoms: _88  and  _89
REMARK   39  A    between atoms: _92  and  _94
REMARK   40  A    between atoms: _94  and  _95
REMARK   41  A    between atoms: _94  and  _97
REMARK   42  A    between atoms: _100  and  _102
REMARK   43  A    between atoms: _102  and  _103
REMARK   44  A    between atoms: _102  and  _105
REMARK   45  A    between atoms: _105  and  _106
REMARK   46  A    between atoms: _109  and  _111
REMARK   47  A    between atoms: _111  and  _112
REMARK   48  A    between atoms: _114  and  _116
REMARK   49  A    between atoms: _116  and  _117
REMARK   50  A    between atoms: _119  and  _121
REMARK   51  A    between atoms: _121  and  _122
REMARK   52  A    between atoms: _121  and  _124
REMARK   53  A    between atoms: _124  and  _125
REMARK   54  A    between atoms: _128  and  _130
REMARK   55  A    between atoms: _130  and  _131
REMARK   56  A    between atoms: _133  and  _135
REMARK   57  A    between atoms: _135  and  _136
REMARK   58  A    between atoms: _138  and  _140
REMARK   59  A    between atoms: _140  and  _141
REMARK   60  A    between atoms: _140  and  _143
REMARK   61  A    between atoms: _143  and  _144
REMARK   62  A    between atoms: _150  and  _152
REMARK   63  A    between atoms: _152  and  _153
REMARK   64  A    between atoms: _152  and  _155
REMARK   65  A    between atoms: _155  and  _156
REMARK   66  A    between atoms: _159  and  _161
REMARK   67  A    between atoms: _161  and  _162
REMARK   68  A    between atoms: _161  and  _164
REMARK   69  A    between atoms: _164  and  _165
REMARK   70  A    between atoms: _169  and  _170
REMARK   71  A    between atoms: _175  and  _177
REMARK   72  A    between atoms: _177  and  _178
REMARK   73  A    between atoms: _177  and  _180
REMARK   74  A    between atoms: _180  and  _181
REMARK   75  A    between atoms: _185  and  _186
REMARK   76  A    between atoms: _191  and  _193
REMARK   77  A    between atoms: _193  and  _194
REMARK   78  A    between atoms: _193  and  _196
REMARK   79  A    between atoms: _199  and  _201
REMARK   80  A    between atoms: _201  and  _202
REMARK   81  A    between atoms: _201  and  _204
REMARK   82  A    between atoms: _204  and  _205
REMARK   83  A    between atoms: _210  and  _212
REMARK   84  A    between atoms: _212  and  _213
REMARK   85  A    between atoms: _212  and  _215
REMARK   86  A    between atoms: _215  and  _216
REMARK   87  A    between atoms: _219  and  _221
REMARK   88  A    between atoms: _221  and  _222
REMARK   89  A    between atoms: _221  and  _224
REMARK   90  A    between atoms: _224  and  _225
REMARK   91  A    between atoms: _228  and  _230
REMARK   92  A    between atoms: _230  and  _231
REMARK   93  A    between atoms: _233  and  _235
REMARK   94  A    between atoms: _235  and  _236
REMARK   95  A    between atoms: _235  and  _238
REMARK   96  A    between atoms: _238  and  _239
REMARK   97  A    between atoms: _239  and  _240
REMARK   98  A    between atoms: _240  and  _241
REMARK   99  A    between atoms: _250  and  _252
REMARK  100  A    between atoms: _252  and  _253
REMARK  101  A    between atoms: _252  and  _255
REMARK  102  A    between atoms: _255  and  _256
REMARK  103  A    between atoms: _261  and  _263
REMARK  104  A    between atoms: _263  and  _264
REMARK  105  A    between atoms: _263  and  _266
REMARK  106  A    between atoms: _266  and  _267
REMARK  107  A    between atoms: _267  and  _268
REMARK  108  A    between atoms: _268  and  _269
REMARK  109  A    between atoms: _278  and  _280
REMARK  110  A    between atoms: _280  and  _281
REMARK  111  A    between atoms: _280  and  _283
REMARK  112  A    between atoms: _283  and  _284
REMARK  113  A    between atoms: _287  and  _289
REMARK  114  A    between atoms: _289  and  _290
REMARK  115  A    between atoms: _289  and  _292
REMARK  116  A    between atoms: _292  and  _293
REMARK  117  A    between atoms: _296  and  _298
REMARK  118  A    between atoms: _298  and  _299
REMARK  119  A    between atoms: _298  and  _301
REMARK  120  A    between atoms: _301  and  _302
REMARK  121  A    between atoms: _305  and  _307
REMARK  122  A    between atoms: _307  and  _308
REMARK  123  A    between atoms: _307  and  _310
REMARK  124  A    between atoms: _310  and  _311
REMARK  125  A    between atoms: _314  and  _316
REMARK  126  A    between atoms: _316  and  _317
REMARK  127  A    between atoms: _319  and  _321
REMARK  128  A    between atoms: _321  and  _322
REMARK  129  A    between atoms: _325  and  _327
REMARK  130  A    between atoms: _327  and  _328
REMARK  131  A    between atoms: _327  and  _330
REMARK  132  A    between atoms: _330  and  _331
REMARK  133  A    between atoms: _334  and  _336
REMARK  134  A    between atoms: _336  and  _337
REMARK  135  A    between atoms: _336  and  _339
REMARK  136  A    between atoms: _339  and  _340
REMARK  137  A    between atoms: _343  and  _345
REMARK  138  A    between atoms: _345  and  _346
REMARK  139  A    between atoms: _345  and  _348
REMARK  140  A    between atoms: _348  and  _349
REMARK  141  A    between atoms: _352  and  _354
REMARK  142  A    between atoms: _354  and  _355
REMARK  143  A    between atoms: _354  and  _357
REMARK  144  A    between atoms: _360  and  _362
REMARK  145  A    between atoms: _362  and  _363
REMARK  146  A    between atoms: _362  and  _365
REMARK  147  A    between atoms: _365  and  _366
REMARK  148  A    between atoms: _366  and  _367
REMARK  149  A    between atoms: _367  and  _368
REMARK  150  A    between atoms: _368  and  _369
REMARK  151  A    between atoms: _373  and  _375
REMARK  152  A    between atoms: _375  and  _376
REMARK  153  A    between atoms: _375  and  _378
REMARK  154  A    between atoms: _378  and  _379
REMARK  155  A    between atoms: _379  and  _380
REMARK  156  A    between atoms: _382  and  _384
REMARK  157  A    between atoms: _384  and  _385
REMARK  158  A    between atoms: _384  and  _387
REMARK  159  A    between atoms: _387  and  _388
REMARK  160  A    between atoms: _391  and  _393
REMARK  161  A    between atoms: _393  and  _394
REMARK  162  A    between atoms: _396  and  _398
REMARK  163  A    between atoms: _398  and  _399
REMARK  164  A    between atoms: _401  and  _403
REMARK  165  A    between atoms: _403  and  _404
REMARK  166  A    between atoms: _403  and  _406
REMARK  167  A    between atoms: _406  and  _407
REMARK  168  A    between atoms: _410  and  _412
REMARK  169  A    between atoms: _412  and  _413
REMARK  170  A    between atoms: _415  and  _417
REMARK  171  A    between atoms: _417  and  _418
REMARK  172  A    between atoms: _420  and  _422
REMARK  173  A    between atoms: _422  and  _423
REMARK  174  A    between atoms: _422  and  _425
REMARK  175  A    between atoms: _425  and  _426
REMARK  176  A    between atoms: _432  and  _434
REMARK  177  A    between atoms: _434  and  _435
REMARK  178  A    between atoms: _434  and  _437
REMARK  179  A    between atoms: _437  and  _438
REMARK  180  A    between atoms: _441  and  _443
REMARK  181  A    between atoms: _443  and  _444
REMARK  182  A    between atoms: _443  and  _446
REMARK  183  A    between atoms: _449  and  _451
REMARK  184  A    between atoms: _451  and  _452
REMARK  185  A    between atoms: _451  and  _454
REMARK  186  A    between atoms: _454  and  _455
REMARK  187  A    between atoms: _458  and  _460
REMARK  188  A    between atoms: _460  and  _461
REMARK  189  A    between atoms: _460  and  _463
REMARK  190  A    between atoms: _463  and  _464
REMARK  191  A    between atoms: _468  and  _469
REMARK  192  A    between atoms: _474  and  _476
REMARK  193  A    between atoms: _476  and  _477
REMARK  194  A    between atoms: _476  and  _479
REMARK  195  A    between atoms: _482  and  _484
REMARK  196  A    between atoms: _484  and  _485
REMARK  197  A    between atoms: _484  and  _487
REMARK  198  A    between atoms: _487  and  _488
REMARK  199  A    between atoms: _493  and  _495
REMARK  200  A    between atoms: _495  and  _496
REMARK  201  A    between atoms: _495  and  _498
REMARK  202  A    between atoms: _498  and  _499
REMARK  203  A    between atoms: _502  and  _504
REMARK  204  A    between atoms: _504  and  _505
REMARK  205  A    between atoms: _504  and  _507
REMARK  206  A    between atoms: _507  and  _508
REMARK  207  A    between atoms: _511  and  _513
REMARK  208  A    between atoms: _513  and  _514
REMARK  209  A    between atoms: _516  and  _518
REMARK  210  A    between atoms: _518  and  _519
REMARK  211  A    between atoms: _518  and  _521
REMARK  212  A    between atoms: _521  and  _522
REMARK  213  A    between atoms: _522  and  _523
REMARK  214  A    between atoms: _523  and  _524
REMARK  215  A    between atoms: _533  and  _535
REMARK  216  A    between atoms: _535  and  _536
REMARK  217  A    between atoms: _535  and  _538
REMARK  218  A    between atoms: _538  and  _539
REMARK                            x       y       z     vdW  Elec       q    Type
REMARK                         _______ _______ _______ _____ _____    ______ ____
ROOT
ATOM      1  CA  LEU A   1      33.329  27.951  10.306  0.00  0.00    +0.133 C 
ENDROOT
BRANCH   1   2
ATOM      2  N   LEU A   1      33.634  27.060  11.409  0.00  0.00    -0.239 NA
ATOM      3  H   LEU A   1      32.906  26.902  12.134  0.00  0.00    +0.142 HD
ENDBRANCH   1   2
BRANCH   1   4
ATOM      4  C   LEU A   1      33.540  29.396  10.751  0.00  0.00    +0.224 C 
ATOM      5  O   LEU A   1      33.155  29.781  11.860  0.00  0.00    -0.287 OA
ENDBRANCH   1   4
BRANCH   1   6
ATOM      6  CB  LEU A   1      31.885  27.752   9.829  0.00  0.00    +0.025 C 
BRANCH   6   7
ATOM      7  CG  LEU A   1      31.437  26.316   9.543  0.00  0.00    +0.002 C 
ATOM      8  CD2 LEU A   1      29.963  26.263   9.147  0.00  0.00    +0.000 C 
ATOM      9  CD1 LEU A   1      32.301  25.668   8.465  0.00  0.00    +0.000 C 
ENDBRANCH   6   7
ENDBRANCH   1   6
TORSDOF 4
REMARK  Name = ../refined-set-2016/2qhy/2qhy_pocket.pdb
REMARK  218 active torsions:
REMARK  status: ('A' for Active; 'I' for Inactive)
REMARK    1  A    between atoms: _1  and  _3
REMARK    2  A    between atoms: _3  and  _4
REMARK    3  A    between atoms: _3  and  _6
REMARK    4  A    between atoms: _6  and  _7
REMARK    5  A    between atoms: _7  and  _8
REMARK    6  A    between atoms: _8  and  _9
REMARK    7  A    between atoms: _18  and  _20
REMARK    8  A    between atoms: _20  and  _21
REMARK    9  A    between atoms: _20  and  _23
REMARK   10  A    between atoms: _23  and  _24
REMARK   11  A    between atoms: _27  and  _29
REMARK   12  A    between atoms: _29  and  _30
REMARK   13  A    between atoms: _29  and  _32
REMARK   14  A    between atoms: _32  and  _33
REMARK   15  A    between atoms: _36  and  _38
REMARK   16  A    between atoms: _38  and  _39
REMARK   17  A    between atoms: _38  and  _41
REMARK   18  A    between atoms: _41  and  _42
REMARK   19  A    between atoms: _45  and  _47
REMARK   20  A    between atoms: _47  and  _48
REMARK   21  A    between atoms: _47  and  _50
REMARK   22  A    between atoms: _50  and  _51
REMARK   23  A    between atoms: _54  and  _56
REMARK   24  A    between atoms: _56  and  _57
REMARK   25  A    between atoms: _59  and  _61
REMARK   26  A    between atoms: _61  and  _62
REMARK   27  A    between atoms: _65  and  _67
REMARK   28  A    between atoms: _67  and  _68
REMARK   29  A    between atoms: _67  and  _70
REMARK   30  A    between atoms: _70  and  _71
REMARK   31  A    between atoms: _74  and  _76
REMARK   32  A    between atoms: _76  and  _77
REMARK   33  A    between atoms: _76  and  _79
REMARK   34  A    between atoms: _79  and  _80
REMARK   35  A    between atoms: _83  and  _85
REMARK   36  A    between atoms: _85  and  _86
REMARK   37  A    between atoms: _85  and  _88
REMARK   38  A    between atoms: _88  and  _89
REMARK   39  A    between atoms: _92  and  _94
REMARK   40  A    between atoms: _94  and  _95
REMARK   41  A    between atoms: _94  and  _97
REMARK   42  A    between atoms: _100  and  _102
REMARK   43  A    between atoms: _102  and  _103
REMARK   44  A    between atoms: _102  and  _105
REMARK   45  A    between atoms: _105  and  _106
REMARK   46  A    between atoms: _109  and  _111
REMARK   47  A    between atoms: _111  and  _112
REMARK   48  A    between atoms: _114  and  _116
REMARK   49  A    between atoms: _116  and  _117
REMARK   50  A    between atoms: _119  and  _121
REMARK   51  A    between atoms: _121  and  _122
REMARK   52  A    between atoms: _121  and  _124
REMARK   53  A    between atoms: _124  and  _125
REMARK   54  A    between atoms: _128  and  _130
REMARK   55  A    between atoms: _130  and  _131
REMARK   56  A    between atoms: _133  and  _135
REMARK   57  A    between atoms: _135  and  _136
REMARK   58  A    between atoms: _138  and  _140
REMARK   59  A    between atoms: _140  and  _141
REMARK   60  A    between atoms: _140  and  _143
REMARK   61  A    between atoms: _143  and  _144
REMARK   62  A    between atoms: _150  and  _152
REMARK   63  A    between atoms: _152  and  _153
REMARK   64  A    between atoms: _152  and  _155
REMARK   65  A    between atoms: _155  and  _156
REMARK   66  A    between atoms: _159  and  _161
REMARK   67  A    between atoms: _161  and  _162
REMARK   68  A    between atoms: _161  and  _164
REMARK   69  A    between atoms: _164  and  _165
REMARK   70  A    between atoms: _169  and  _170
REMARK   71  A    between atoms: _175  and  _177
REMARK   72  A    between atoms: _177  and  _178
REMARK   73  A    between atoms: _177  and  _180
REMARK   74  A    between atoms: _180  and  _181
REMARK   75  A    between atoms: _185  and  _186
REMARK   76  A    between atoms: _191  and  _193
REMARK   77  A    between atoms: _193  and  _194
REMARK   78  A    between atoms: _193  and  _196
REMARK   79  A    between atoms: _199  and  _201
REMARK   80  A    between atoms: _201  and  _202
REMARK   81  A    between atoms: _201  and  _204
REMARK   82  A    between atoms: _204  and  _205
REMARK   83  A    between atoms: _210  and  _212
REMARK   84  A    between atoms: _212  and  _213
REMARK   85  A    between atoms: _212  and  _215
REMARK   86  A    between atoms: _215  and  _216
REMARK   87  A    between atoms: _219  and  _221
REMARK   88  A    between atoms: _221  and  _222
REMARK   89  A    between atoms: _221  and  _224
REMARK   90  A    between atoms: _224  and  _225
REMARK   91  A    between atoms: _228  and  _230
REMARK   92  A    between atoms: _230  and  _231
REMARK   93  A    between atoms: _233  and  _235
REMARK   94  A    between atoms: _235  and  _236
REMARK   95  A    between atoms: _235  and  _238
REMARK   96  A    between atoms: _238  and  _239
REMARK   97  A    between atoms: _239  and  _240
REMARK   98  A    between atoms: _240  and  _241
REMARK   99  A    between atoms: _250  and  _252
REMARK  100  A    between atoms: _252  and  _253
REMARK  101  A    between atoms: _252  and  _255
REMARK  102  A    between atoms: _255  and  _256
REMARK  103  A    between atoms: _261  and  _263
REMARK  104  A    between atoms: _263  and  _264
REMARK  105  A    between atoms: _263  and  _266
REMARK  106  A    between atoms: _266  and  _267
REMARK  107  A    between atoms: _267  and  _268
REMARK  108  A    between atoms: _268  and  _269
REMARK  109  A    between atoms: _278  and  _280
REMARK  110  A    between atoms: _280  and  _281
REMARK  111  A    between atoms: _280  and  _283
REMARK  112  A    between atoms: _283  and  _284
REMARK  113  A    between atoms: _287  and  _289
REMARK  114  A    between atoms: _289  and  _290
REMARK  115  A    between atoms: _289  and  _292
REMARK  116  A    between atoms: _292  and  _293
REMARK  117  A    between atoms: _296  and  _298
REMARK  118  A    between atoms: _298  and  _299
REMARK  119  A    between atoms: _298  and  _301
REMARK  120  A    between atoms: _301  and  _302
REMARK  121  A    between atoms: _305  and  _307
REMARK  122  A    between atoms: _307  and  _308
REMARK  123  A    between atoms: _307  and  _310
REMARK  124  A    between atoms: _310  and  _311
REMARK  125  A    between atoms: _314  and  _316
REMARK  126  A    between atoms: _316  and  _317
REMARK  127  A    between atoms: _319  and  _321
REMARK  128  A    between atoms: _321  and  _322
REMARK  129  A    between atoms: _325  and  _327
REMARK  130  A    between atoms: _327  and  _328
REMARK  131  A    between atoms: _327  and  _330
REMARK  132  A    between atoms: _330  and  _331
REMARK  133  A    between atoms: _334  and  _336
REMARK  134  A    between atoms: _336  and  _337
REMARK  135  A    between atoms: _336  and  _339
REMARK  136  A    between atoms: _339  and  _340
REMARK  137  A    between atoms: _343  and  _345
REMARK  138  A    between atoms: _345  and  _346
REMARK  139  A    between atoms: _345  and  _348
REMARK  140  A    between atoms: _348  and  _349
REMARK  141  A    between atoms: _352  and  _354
REMARK  142  A    between atoms: _354  and  _355
REMARK  143  A    between atoms: _354  and  _357
REMARK  144  A    between atoms: _360  and  _362
REMARK  145  A    between atoms: _362  and  _363
REMARK  146  A    between atoms: _362  and  _365
REMARK  147  A    between atoms: _365  and  _366
REMARK  148  A    between atoms: _366  and  _367
REMARK  149  A    between atoms: _367  and  _368
REMARK  150  A    between atoms: _368  and  _369
REMARK  151  A    between atoms: _373  and  _375
REMARK  152  A    between atoms: _375  and  _376
REMARK  153  A    between atoms: _375  and  _378
REMARK  154  A    between atoms: _378  and  _379
REMARK  155  A    between atoms: _379  and  _380
REMARK  156  A    between atoms: _382  and  _384
REMARK  157  A    between atoms: _384  and  _385
REMARK  158  A    between atoms: _384  and  _387
REMARK  159  A    between atoms: _387  and  _388
REMARK  160  A    between atoms: _391  and  _393
REMARK  161  A    between atoms: _393  and  _394
REMARK  162  A    between atoms: _396  and  _398
REMARK  163  A    between atoms: _398  and  _399
REMARK  164  A    between atoms: _401  and  _403
REMARK  165  A    between atoms: _403  and  _404
REMARK  166  A    between atoms: _403  and  _406
REMARK  167  A    between atoms: _406  and  _407
REMARK  168  A    between atoms: _410  and  _412
REMARK  169  A    between atoms: _412  and  _413
REMARK  170  A    between atoms: _415  and  _417
REMARK  171  A    between atoms: _417  and  _418
REMARK  172  A    between atoms: _420  and  _422
REMARK  173  A    between atoms: _422  and  _423
REMARK  174  A    between atoms: _422  and  _425
REMARK  175  A    between atoms: _425  and  _426
REMARK  176  A    between atoms: _432  and  _434
REMARK  177  A    between atoms: _434  and  _435
REMARK  178  A    between atoms: _434  and  _437
REMARK  179  A    between atoms: _437  and  _438
REMARK  180  A    between atoms: _441  and  _443
REMARK  181  A    between atoms: _443  and  _444
REMARK  182  A    between atoms: _443  and  _446
REMARK  183  A    between atoms: _449  and  _451
REMARK  184  A    between atoms: _451  and  _452
REMARK  185  A    between atoms: _451  and  _454
REMARK  186  A    between atoms: _454  and  _455
REMARK  187  A    between atoms: _458  and  _460
REMARK  188  A    between atoms: _460  and  _461
REMARK  189  A    between atoms: _460  and  _463
REMARK  190  A    between atoms: _463  and  _464
REMARK  191  A    between atoms: _468  and  _469
REMARK  192  A    between atoms: _474  and  _476
REMARK  193  A    between atoms: _476  and  _477
REMARK  194  A    between atoms: _476  and  _479
REMARK  195  A    between atoms: _482  and  _484
REMARK  196  A    between atoms: _484  and  _485
REMARK  197  A    between atoms: _484  and  _487
REMARK  198  A    between atoms: _487  and  _488
REMARK  199  A    between atoms: _493  and  _495
REMARK  200  A    between atoms: _495  and  _496
REMARK  201  A    between atoms: _495  and  _498
REMARK  202  A    between atoms: _498  and  _499
REMARK  203  A    between atoms: _502  and  _504
REMARK  204  A    between atoms: _504  and  _505
REMARK  205  A    between atoms: _504  and  _507
REMARK  206  A    between atoms: _507  and  _508
REMARK  207  A    between atoms: _511  and  _513
REMARK  208  A    between atoms: _513  and  _514
REMARK  209  A    between atoms: _516  and  _518
REMARK  210  A    between atoms: _518  and  _519
REMARK  211  A    between atoms: _518  and  _521
REMARK  212  A    between atoms: _521  and  _522
REMARK  213  A    between atoms: _522  and  _523
REMARK  214  A    between atoms: _523  and  _524
REMARK  215  A    between atoms: _533  and  _535
REMARK  216  A    between atoms: _535  and  _536
REMARK  217  A    between atoms: _535  and  _538
REMARK  218  A    between atoms: _538  and  _539
REMARK                            x       y       z     vdW  Elec       q    Type
REMARK                         _______ _______ _______ _____ _____    ______ ____
ROOT
ATOM      1  CA  ILE A   6      28.189  30.150  18.299  0.00  0.00    +0.149 C 
ENDROOT
BRANCH   1   2
ATOM      2  C   ILE A   6      28.911  28.804  18.277  0.00  0.00    +0.241 C 
ATOM      3  N   ILE A   7      28.716  28.048  19.352  0.00  0.00    -0.297 N 
ATOM      4  H   ILE A   7      28.230  28.456  20.176  0.00  0.00    +0.150 HD
ATOM      5  O   ILE A   6      29.657  28.479  17.339  0.00  0.00    -0.273 OA
BRANCH   3   6
ATOM      6  CA  ILE A   7      29.159  26.677  19.408  0.00  0.00    +0.149 C 
BRANCH   6   7
ATOM      7  C   ILE A   7      27.974  25.795  19.038  0.00  0.00    +0.241 C 
ATOM      8  O   ILE A   7      26.978  25.749  19.761  0.00  0.00    -0.273 OA
ATOM      9  N   GLY A   8      28.089  25.099  17.908  0.00  0.00    -0.295 N 
ATOM     10  H   GLY A   8      28.982  25.143  17.377  0.00  0.00    +0.150 HD
BRANCH   9  11
ATOM     11  CA  GLY A   8      26.998  24.277  17.394  0.00  0.00    +0.176 C 
BRANCH  11  12
ATOM     12  C   GLY A   8      27.101  22.827  17.795  0.00  0.00    +0.243 C 
ATOM     13  O   GLY A   8      28.028  22.434  18.510  0.00  0.00    -0.273 OA
ATOM     14  N   ARG A   9      26.168  22.011  17.294  0.00  0.00    -0.297 N 
ATOM     15  H   ARG A   9      25.503  22.374  16.582  0.00  0.00    +0.150 HD
BRANCH  14  16
ATOM     16  CA  ARG A   9      26.064  20.624  17.725  0.00  0.00    +0.149 C 
BRANCH  16  17
ATOM     17  C   ARG A   9      27.312  19.807  17.425  0.00  0.00    +0.241 C 
ATOM     18  O   ARG A   9      27.647  18.917  18.192  0.00  0.00    -0.273 OA
ATOM     19  N   ASN A  10      28.032  20.125  16.352  0.00  0.00    -0.298 N 
ATOM     20  H   ASN A  10      27.738  20.915  15.743  0.00  0.00    +0.150 HD
BRANCH  19  21
ATOM     21  CA  ASN A  10      29.239  19.360  16.031  0.00  0.00    +0.146 C 
BRANCH  21  22
ATOM     22  C   ASN A  10      30.241  19.310  17.201  0.00  0.00    +0.227 C 
ATOM     23  O   ASN A  10      30.883  18.285  17.423  0.00  0.00    -0.286 OA
ENDBRANCH  21  22
BRANCH  21  24
ATOM     24  CB  ASN A  10      29.900  19.864  14.737  0.00  0.00    +0.112 C 
BRANCH  24  25
ATOM     25  CG  ASN A  10      30.623  21.191  14.918  0.00  0.00    +0.222 C 
ATOM     26  OD1 ASN A  10      30.049  22.158  15.416  0.00  0.00    -0.275 OA
ATOM     27  ND2 ASN A  10      31.897  21.235  14.513  0.00  0.00    -0.329 N 
ATOM     28 HD21 ASN A  10      32.445  22.113  14.614  0.00  0.00    +0.145 HD
ATOM     29 HD22 ASN A  10      32.340  20.391  14.097  0.00  0.00    +0.145 HD
ENDBRANCH  24  25
ENDBRANCH  21  24
ENDBRANCH  19  21
ENDBRANCH  16  17
BRANCH  16  30
ATOM     30  CB  ARG A   9      24.827  19.939  17.134  0.00  0.00    +0.033 C 
BRANCH  30  31
ATOM     31  CG  ARG A   9      23.531  20.490  17.677  0.00  0.00    +0.045 C 
BRANCH  31  32
ATOM     32  CD  ARG A   9      22.339  19.718  17.207  0.00  0.00    +0.174 C 
BRANCH  32  33
ATOM     33  NE  ARG A   9      22.185  19.807  15.754  0.00  0.00    -0.265 N 
ATOM     34  HE  ARG A   9      21.730  20.662  15.374  0.00  0.00    +0.259 HD
ATOM     35  CZ  ARG A   9      22.578  18.886  14.879  0.00  0.00    +0.342 C 
ATOM     36  NH2 ARG A   9      23.160  17.755  15.269  0.00  0.00    -0.292 N 
ATOM     37 HH21 ARG A   9      23.318  17.573  16.281  0.00  0.00    +0.255 HD
ATOM     38 HH22 ARG A   9      23.457  17.052  14.562  0.00  0.00    +0.255 HD
ATOM     39  NH1 ARG A   9      22.387  19.111  13.586  0.00  0.00    -0.292 N 
ATOM     40 HH11 ARG A   9      21.937  19.995  13.273  0.00  0.00    +0.255 HD
ATOM     41 HH12 ARG A   9      22.687  18.404  12.885  0.00  0.00    +0.255 HD
ENDBRANCH  32  33
ENDBRANCH  31  32
ENDBRANCH  30  31
ENDBRANCH  16  30
ENDBRANCH  14  16
ENDBRANCH  11  12
ENDBRANCH   9  11
ENDBRANCH   6   7
BRANCH   6  42
ATOM     42  CB  ILE A   7      29.660  26.296  20.814  0.00  0.00    +0.027 C 
ATOM     43  CG2 ILE A   7      30.147  24.841  20.810  0.00  0.00    +0.002 C 
BRANCH  42  44
ATOM     44  CG1 ILE A   7      30.743  27.278  21.289  0.00  0.00    +0.002 C 
ATOM     45  CD1 ILE A   7      31.981  27.365  20.398  0.00  0.00    +0.000 C 
ENDBRANCH  42  44
ENDBRANCH   6  42
ENDBRANCH   3   6
ENDBRANCH   1   2
BRANCH   1  48
ATOM     46  C   ASN A   5      29.239  32.327  18.593  0.00  0.00    +0.241 C 
ATOM     47  O   ASN A   5      28.692  32.491  19.694  0.00  0.00    -0.273 OA
ATOM     48  N   ILE A   6      29.041  31.241  17.844  0.00  0.00    -0.297 N 
ATOM     49  H   ILE A   6      29.505  31.172  16.916  0.00  0.00    +0.150 HD
BRANCH  46  50
ATOM     50  CA  ASN A   5      30.178  33.399  18.045  0.00  0.00    +0.158 C 
BRANCH  50  52
ATOM     51  C   VAL A   4      28.394  34.877  17.259  0.00  0.00    +0.241 C 
ATOM     52  N   ASN A   5      29.490  34.701  17.994  0.00  0.00    -0.297 N 
ATOM     53  H   ASN A   5      29.868  35.499  18.543  0.00  0.00    +0.150 HD
ATOM     54  O   VAL A   4      27.962  34.014  16.493  0.00  0.00    -0.273 OA
BRANCH  51  55
ATOM     55  CA  VAL A   4      27.657  36.200  17.428  0.00  0.00    +0.149 C 
BRANCH  55  58
ATOM     56  C   PRO A   3      26.737  37.828  15.850  0.00  0.00    +0.241 C 
ATOM     57  O   PRO A   3      27.021  38.784  16.568  0.00  0.00    -0.273 OA
ATOM     58  N   VAL A   4      26.961  36.562  16.203  0.00  0.00    -0.297 N 
ATOM     59  H   VAL A   4      26.625  35.803  15.577  0.00  0.00    +0.150 HD
BRANCH  56  62
ATOM     60  C   THR A   2      27.456  36.698  13.056  0.00  0.00    +0.246 C 
ATOM     61  N   PRO A   3      26.221  36.981  13.509  0.00  0.00    -0.272 N 
ATOM     62  CA  PRO A   3      26.064  38.069  14.490  0.00  0.00    +0.152 C 
ATOM     63  CB  PRO A   3      24.541  38.174  14.670  0.00  0.00    +0.031 C 
ATOM     64  CG  PRO A   3      24.007  36.873  14.249  0.00  0.00    +0.024 C 
ATOM     65  CD  PRO A   3      24.925  36.372  13.161  0.00  0.00    +0.094 C 
ATOM     66  O   THR A   2      28.444  37.365  13.378  0.00  0.00    -0.273 OA
BRANCH  60  67
ATOM     67  CA  THR A   2      27.620  35.503  12.115  0.00  0.00    +0.176 C 
BRANCH  67  69
ATOM     68  C   PRO A   1      28.402  36.548  10.067  0.00  0.00    +0.239 C 
ATOM     69  N   THR A   2      28.662  35.815  11.142  0.00  0.00    -0.295 N 
ATOM     70  H   THR A   2      29.626  35.456  11.294  0.00  0.00    +0.150 HD
ATOM     71  O   PRO A   1      27.262  36.871   9.748  0.00  0.00    -0.274 OA
BRANCH  68  73
ATOM     72  N   PRO A   1      30.480  35.954   8.722  0.00  0.00    -0.210 NA
ATOM     73  CA  PRO A   1      29.615  37.011   9.253  0.00  0.00    +0.149 C 
ATOM     74  CB  PRO A   1      29.198  37.766   7.997  0.00  0.00    +0.028 C 
ATOM     75  CG  PRO A   1      29.165  36.714   6.938  0.00  0.00    +0.021 C 
ATOM     76  CD  PRO A   1      30.360  35.850   7.252  0.00  0.00    +0.089 C 
ENDBRANCH  68  73
ENDBRANCH  67  69
BRANCH  67  77
ATOM     77  CB  THR A   2      27.950  34.225  12.926  0.00  0.00    +0.137 C 
ATOM     78  CG2 THR A   2      29.318  34.318  13.582  0.00  0.00    +0.034 C 
BRANCH  77  79
ATOM     79  OG1 THR A   2      26.950  34.014  13.930  0.00  0.00    -0.382 OA
ATOM     80  HG1 THR A   2      26.928  34.793  14.541  0.00  0.00    +0.210 HD
ENDBRANCH  77  79
ENDBRANCH  67  77
ENDBRANCH  60  67
ENDBRANCH  56  62
ENDBRANCH  55  58
BRANCH  55  81
ATOM     81  CB  VAL A   4      26.674  36.109  18.631  0.00  0.00    +0.027 C 
ATOM     82  CG2 VAL A   4      27.417  35.891  19.947  0.00  0.00    +0.002 C 
ATOM     83  CG1 VAL A   4      25.673  35.013  18.437  0.00  0.00    +0.002 C 
ENDBRANCH  55  81
ENDBRANCH  51  55
ENDBRANCH  50  52
BRANCH  50  84
ATOM     84  CB  ASN A   5      31.409  33.460  18.967  0.00  0.00    +0.114 C 
BRANCH  84  85
ATOM     85  CG  ASN A   5      32.474  34.438  18.491  0.00  0.00    +0.222 C 
ATOM     86  ND2 ASN A   5      33.118  35.123  19.442  0.00  0.00    -0.329 N 
ATOM     87 HD21 ASN A   5      32.872  34.981  20.442  0.00  0.00    +0.145 HD
ATOM     88 HD22 ASN A   5      33.865  35.798  19.181  0.00  0.00    +0.145 HD
ATOM     89  OD1 ASN A   5      32.725  34.567  17.293  0.00  0.00    -0.275 OA
ENDBRANCH  84  85
ENDBRANCH  50  84
ENDBRANCH  46  50
ENDBRANCH   1  48
BRANCH   1  90
ATOM     90  CB  ILE A   6      26.839  30.048  17.522  0.00  0.00    +0.027 C 
ATOM     91  CG2 ILE A   6      25.898  31.159  17.958  0.00  0.00    +0.002 C 
BRANCH  90  92
ATOM     92  CG1 ILE A   6      27.053  30.088  16.011  0.00  0.00    +0.002 C 
ATOM     93  CD1 ILE A   6      25.838  29.702  15.189  0.00  0.00    +0.000 C 
ENDBRANCH  90  92
ENDBRANCH   1  90
TORSDOF 33
REMARK  Name = ../refined-set-2016/2qhy/2qhy_pocket.pdb
REMARK  218 active torsions:
REMARK  status: ('A' for Active; 'I' for Inactive)
REMARK    1  A    between atoms: _1  and  _3
REMARK    2  A    between atoms: _3  and  _4
REMARK    3  A    between atoms: _3  and  _6
REMARK    4  A    between atoms: _6  and  _7
REMARK    5  A    between atoms: _7  and  _8
REMARK    6  A    between atoms: _8  and  _9
REMARK    7  A    between atoms: _18  and  _20
REMARK    8  A    between atoms: _20  and  _21
REMARK    9  A    between atoms: _20  and  _23
REMARK   10  A    between atoms: _23  and  _24
REMARK   11  A    between atoms: _27  and  _29
REMARK   12  A    between atoms: _29  and  _30
REMARK   13  A    between atoms: _29  and  _32
REMARK   14  A    between atoms: _32  and  _33
REMARK   15  A    between atoms: _36  and  _38
REMARK   16  A    between atoms: _38  and  _39
REMARK   17  A    between atoms: _38  and  _41
REMARK   18  A    between atoms: _41  and  _42
REMARK   19  A    between atoms: _45  and  _47
REMARK   20  A    between atoms: _47  and  _48
REMARK   21  A    between atoms: _47  and  _50
REMARK   22  A    between atoms: _50  and  _51
REMARK   23  A    between atoms: _54  and  _56
REMARK   24  A    between atoms: _56  and  _57
REMARK   25  A    between atoms: _59  and  _61
REMARK   26  A    between atoms: _61  and  _62
REMARK   27  A    between atoms: _65  and  _67
REMARK   28  A    between atoms: _67  and  _68
REMARK   29  A    between atoms: _67  and  _70
REMARK   30  A    between atoms: _70  and  _71
REMARK   31  A    between atoms: _74  and  _76
REMARK   32  A    between atoms: _76  and  _77
REMARK   33  A    between atoms: _76  and  _79
REMARK   34  A    between atoms: _79  and  _80
REMARK   35  A    between atoms: _83  and  _85
REMARK   36  A    between atoms: _85  and  _86
REMARK   37  A    between atoms: _85  and  _88
REMARK   38  A    between atoms: _88  and  _89
REMARK   39  A    between atoms: _92  and  _94
REMARK   40  A    between atoms: _94  and  _95
REMARK   41  A    between atoms: _94  and  _97
REMARK   42  A    between atoms: _100  and  _102
REMARK   43  A    between atoms: _102  and  _103
REMARK   44  A    between atoms: _102  and  _105
REMARK   45  A    between atoms: _105  and  _106
REMARK   46  A    between atoms: _109  and  _111
REMARK   47  A    between atoms: _111  and  _112
REMARK   48  A    between atoms: _114  and  _116
REMARK   49  A    between atoms: _116  and  _117
REMARK   50  A    between atoms: _119  and  _121
REMARK   51  A    between atoms: _121  and  _122
REMARK   52  A    between atoms: _121  and  _124
REMARK   53  A    between atoms: _124  and  _125
REMARK   54  A    between atoms: _128  and  _130
REMARK   55  A    between atoms: _130  and  _131
REMARK   56  A    between atoms: _133  and  _135
REMARK   57  A    between atoms: _135  and  _136
REMARK   58  A    between atoms: _138  and  _140
REMARK   59  A    between atoms: _140  and  _141
REMARK   60  A    between atoms: _140  and  _143
REMARK   61  A    between atoms: _143  and  _144
REMARK   62  A    between atoms: _150  and  _152
REMARK   63  A    between atoms: _152  and  _153
REMARK   64  A    between atoms: _152  and  _155
REMARK   65  A    between atoms: _155  and  _156
REMARK   66  A    between atoms: _159  and  _161
REMARK   67  A    between atoms: _161  and  _162
REMARK   68  A    between atoms: _161  and  _164
REMARK   69  A    between atoms: _164  and  _165
REMARK   70  A    between atoms: _169  and  _170
REMARK   71  A    between atoms: _175  and  _177
REMARK   72  A    between atoms: _177  and  _178
REMARK   73  A    between atoms: _177  and  _180
REMARK   74  A    between atoms: _180  and  _181
REMARK   75  A    between atoms: _185  and  _186
REMARK   76  A    between atoms: _191  and  _193
REMARK   77  A    between atoms: _193  and  _194
REMARK   78  A    between atoms: _193  and  _196
REMARK   79  A    between atoms: _199  and  _201
REMARK   80  A    between atoms: _201  and  _202
REMARK   81  A    between atoms: _201  and  _204
REMARK   82  A    between atoms: _204  and  _205
REMARK   83  A    between atoms: _210  and  _212
REMARK   84  A    between atoms: _212  and  _213
REMARK   85  A    between atoms: _212  and  _215
REMARK   86  A    between atoms: _215  and  _216
REMARK   87  A    between atoms: _219  and  _221
REMARK   88  A    between atoms: _221  and  _222
REMARK   89  A    between atoms: _221  and  _224
REMARK   90  A    between atoms: _224  and  _225
REMARK   91  A    between atoms: _228  and  _230
REMARK   92  A    between atoms: _230  and  _231
REMARK   93  A    between atoms: _233  and  _235
REMARK   94  A    between atoms: _235  and  _236
REMARK   95  A    between atoms: _235  and  _238
REMARK   96  A    between atoms: _238  and  _239
REMARK   97  A    between atoms: _239  and  _240
REMARK   98  A    between atoms: _240  and  _241
REMARK   99  A    between atoms: _250  and  _252
REMARK  100  A    between atoms: _252  and  _253
REMARK  101  A    between atoms: _252  and  _255
REMARK  102  A    between atoms: _255  and  _256
REMARK  103  A    between atoms: _261  and  _263
REMARK  104  A    between atoms: _263  and  _264
REMARK  105  A    between atoms: _263  and  _266
REMARK  106  A    between atoms: _266  and  _267
REMARK  107  A    between atoms: _267  and  _268
REMARK  108  A    between atoms: _268  and  _269
REMARK  109  A    between atoms: _278  and  _280
REMARK  110  A    between atoms: _280  and  _281
REMARK  111  A    between atoms: _280  and  _283
REMARK  112  A    between atoms: _283  and  _284
REMARK  113  A    between atoms: _287  and  _289
REMARK  114  A    between atoms: _289  and  _290
REMARK  115  A    between atoms: _289  and  _292
REMARK  116  A    between atoms: _292  and  _293
REMARK  117  A    between atoms: _296  and  _298
REMARK  118  A    between atoms: _298  and  _299
REMARK  119  A    between atoms: _298  and  _301
REMARK  120  A    between atoms: _301  and  _302
REMARK  121  A    between atoms: _305  and  _307
REMARK  122  A    between atoms: _307  and  _308
REMARK  123  A    between atoms: _307  and  _310
REMARK  124  A    between atoms: _310  and  _311
REMARK  125  A    between atoms: _314  and  _316
REMARK  126  A    between atoms: _316  and  _317
REMARK  127  A    between atoms: _319  and  _321
REMARK  128  A    between atoms: _321  and  _322
REMARK  129  A    between atoms: _325  and  _327
REMARK  130  A    between atoms: _327  and  _328
REMARK  131  A    between atoms: _327  and  _330
REMARK  132  A    between atoms: _330  and  _331
REMARK  133  A    between atoms: _334  and  _336
REMARK  134  A    between atoms: _336  and  _337
REMARK  135  A    between atoms: _336  and  _339
REMARK  136  A    between atoms: _339  and  _340
REMARK  137  A    between atoms: _343  and  _345
REMARK  138  A    between atoms: _345  and  _346
REMARK  139  A    between atoms: _345  and  _348
REMARK  140  A    between atoms: _348  and  _349
REMARK  141  A    between atoms: _352  and  _354
REMARK  142  A    between atoms: _354  and  _355
REMARK  143  A    between atoms: _354  and  _357
REMARK  144  A    between atoms: _360  and  _362
REMARK  145  A    between atoms: _362  and  _363
REMARK  146  A    between atoms: _362  and  _365
REMARK  147  A    between atoms: _365  and  _366
REMARK  148  A    between atoms: _366  and  _367
REMARK  149  A    between atoms: _367  and  _368
REMARK  150  A    between atoms: _368  and  _369
REMARK  151  A    between atoms: _373  and  _375
REMARK  152  A    between atoms: _375  and  _376
REMARK  153  A    between atoms: _375  and  _378
REMARK  154  A    between atoms: _378  and  _379
REMARK  155  A    between atoms: _379  and  _380
REMARK  156  A    between atoms: _382  and  _384
REMARK  157  A    between atoms: _384  and  _385
REMARK  158  A    between atoms: _384  and  _387
REMARK  159  A    between atoms: _387  and  _388
REMARK  160  A    between atoms: _391  and  _393
REMARK  161  A    between atoms: _393  and  _394
REMARK  162  A    between atoms: _396  and  _398
REMARK  163  A    between atoms: _398  and  _399
REMARK  164  A    between atoms: _401  and  _403
REMARK  165  A    between atoms: _403  and  _404
REMARK  166  A    between atoms: _403  and  _406
REMARK  167  A    between atoms: _406  and  _407
REMARK  168  A    between atoms: _410  and  _412
REMARK  169  A    between atoms: _412  and  _413
REMARK  170  A    between atoms: _415  and  _417
REMARK  171  A    between atoms: _417  and  _418
REMARK  172  A    between atoms: _420  and  _422
REMARK  173  A    between atoms: _422  and  _423
REMARK  174  A    between atoms: _422  and  _425
REMARK  175  A    between atoms: _425  and  _426
REMARK  176  A    between atoms: _432  and  _434
REMARK  177  A    between atoms: _434  and  _435
REMARK  178  A    between atoms: _434  and  _437
REMARK  179  A    between atoms: _437  and  _438
REMARK  180  A    between atoms: _441  and  _443
REMARK  181  A    between atoms: _443  and  _444
REMARK  182  A    between atoms: _443  and  _446
REMARK  183  A    between atoms: _449  and  _451
REMARK  184  A    between atoms: _451  and  _452
REMARK  185  A    between atoms: _451  and  _454
REMARK  186  A    between atoms: _454  and  _455
REMARK  187  A    between atoms: _458  and  _460
REMARK  188  A    between atoms: _460  and  _461
REMARK  189  A    between atoms: _460  and  _463
REMARK  190  A    between atoms: _463  and  _464
REMARK  191  A    between atoms: _468  and  _469
REMARK  192  A    between atoms: _474  and  _476
REMARK  193  A    between atoms: _476  and  _477
REMARK  194  A    between atoms: _476  and  _479
REMARK  195  A    between atoms: _482  and  _484
REMARK  196  A    between atoms: _484  and  _485
REMARK  197  A    between atoms: _484  and  _487
REMARK  198  A    between atoms: _487  and  _488
REMARK  199  A    between atoms: _493  and  _495
REMARK  200  A    between atoms: _495  and  _496
REMARK  201  A    between atoms: _495  and  _498
REMARK  202  A    between atoms: _498  and  _499
REMARK  203  A    between atoms: _502  and  _504
REMARK  204  A    between atoms: _504  and  _505
REMARK  205  A    between atoms: _504  and  _507
REMARK  206  A    between atoms: _507  and  _508
REMARK  207  A    between atoms: _511  and  _513
REMARK  208  A    between atoms: _513  and  _514
REMARK  209  A    between atoms: _516  and  _518
REMARK  210  A    between atoms: _518  and  _519
REMARK  211  A    between atoms: _518  and  _521
REMARK  212  A    between atoms: _521  and  _522
REMARK  213  A    between atoms: _522  and  _523
REMARK  214  A    between atoms: _523  and  _524
REMARK  215  A    between atoms: _533  and  _535
REMARK  216  A    between atoms: _535  and  _536
REMARK  217  A    between atoms: _535  and  _538
REMARK  218  A    between atoms: _538  and  _539
REMARK                            x       y       z     vdW  Elec       q    Type
REMARK                         _______ _______ _______ _____ _____    ______ ____
ROOT
ATOM      1  NE  ARG A   1      19.056  21.057  11.272  0.00  0.00    -0.265 N 
ATOM      2  HE  ARG A   1      20.067  20.820  11.334  0.00  0.00    +0.259 HD
ATOM      3  CZ  ARG A   1      18.661  21.849  10.276  0.00  0.00    +0.342 C 
ATOM      4  NH2 ARG A   1      17.379  22.176  10.135  0.00  0.00    -0.292 N 
ATOM      5 HH21 ARG A   1      16.673  21.813  10.806  0.00  0.00    +0.255 HD
ATOM      6 HH22 ARG A   1      17.083  22.795   9.353  0.00  0.00    +0.255 HD
ATOM      7  NH1 ARG A   1      19.549  22.301   9.400  0.00  0.00    -0.292 N 
ATOM      8 HH11 ARG A   1      20.551  22.037   9.492  0.00  0.00    +0.255 HD
ATOM      9 HH12 ARG A   1      19.243  22.919   8.622  0.00  0.00    +0.255 HD
ENDROOT
BRANCH   1  10
ATOM     10  CD  ARG A   1      18.164  20.503  12.279  0.00  0.00    +0.174 C 
BRANCH  10  11
ATOM     11  CG  ARG A   1      18.914  19.644  13.288  0.00  0.00    +0.045 C 
BRANCH  11  12
ATOM     12  CB  ARG A   1      17.976  19.028  14.293  0.00  0.00    +0.029 C 
BRANCH  12  13
ATOM     13  CA  ARG A   1      18.704  18.417  15.491  0.00  0.00    +0.133 C 
BRANCH  13  14
ATOM     14  N   ARG A   1      19.443  17.245  15.071  0.00  0.00    -0.239 NA
ATOM     15  H   ARG A   1      19.453  16.975  14.067  0.00  0.00    +0.142 HD
ENDBRANCH  13  14
BRANCH  13  16
ATOM     16  C   ARG A   1      17.702  18.046  16.603  0.00  0.00    +0.224 C 
ATOM     17  O   ARG A   1      16.982  17.027  16.495  0.00  0.00    -0.287 OA
ENDBRANCH  13  16
ENDBRANCH  12  13
ENDBRANCH  11  12
ENDBRANCH  10  11
ENDBRANCH   1  10
TORSDOF 6
REMARK  Name = ../refined-set-2016/2qhy/2qhy_pocket.pdb
REMARK  218 active torsions:
REMARK  status: ('A' for Active; 'I' for Inactive)
REMARK    1  A    between atoms: _1  and  _3
REMARK    2  A    between atoms: _3  and  _4
REMARK    3  A    between atoms: _3  and  _6
REMARK    4  A    between atoms: _6  and  _7
REMARK    5  A    between atoms: _7  and  _8
REMARK    6  A    between atoms: _8  and  _9
REMARK    7  A    between atoms: _18  and  _20
REMARK    8  A    between atoms: _20  and  _21
REMARK    9  A    between atoms: _20  and  _23
REMARK   10  A    between atoms: _23  and  _24
REMARK   11  A    between atoms: _27  and  _29
REMARK   12  A    between atoms: _29  and  _30
REMARK   13  A    between atoms: _29  and  _32
REMARK   14  A    between atoms: _32  and  _33
REMARK   15  A    between atoms: _36  and  _38
REMARK   16  A    between atoms: _38  and  _39
REMARK   17  A    between atoms: _38  and  _41
REMARK   18  A    between atoms: _41  and  _42
REMARK   19  A    between atoms: _45  and  _47
REMARK   20  A    between atoms: _47  and  _48
REMARK   21  A    between atoms: _47  and  _50
REMARK   22  A    between atoms: _50  and  _51
REMARK   23  A    between atoms: _54  and  _56
REMARK   24  A    between atoms: _56  and  _57
REMARK   25  A    between atoms: _59  and  _61
REMARK   26  A    between atoms: _61  and  _62
REMARK   27  A    between atoms: _65  and  _67
REMARK   28  A    between atoms: _67  and  _68
REMARK   29  A    between atoms: _67  and  _70
REMARK   30  A    between atoms: _70  and  _71
REMARK   31  A    between atoms: _74  and  _76
REMARK   32  A    between atoms: _76  and  _77
REMARK   33  A    between atoms: _76  and  _79
REMARK   34  A    between atoms: _79  and  _80
REMARK   35  A    between atoms: _83  and  _85
REMARK   36  A    between atoms: _85  and  _86
REMARK   37  A    between atoms: _85  and  _88
REMARK   38  A    between atoms: _88  and  _89
REMARK   39  A    between atoms: _92  and  _94
REMARK   40  A    between atoms: _94  and  _95
REMARK   41  A    between atoms: _94  and  _97
REMARK   42  A    between atoms: _100  and  _102
REMARK   43  A    between atoms: _102  and  _103
REMARK   44  A    between atoms: _102  and  _105
REMARK   45  A    between atoms: _105  and  _106
REMARK   46  A    between atoms: _109  and  _111
REMARK   47  A    between atoms: _111  and  _112
REMARK   48  A    between atoms: _114  and  _116
REMARK   49  A    between atoms: _116  and  _117
REMARK   50  A    between atoms: _119  and  _121
REMARK   51  A    between atoms: _121  and  _122
REMARK   52  A    between atoms: _121  and  _124
REMARK   53  A    between atoms: _124  and  _125
REMARK   54  A    between atoms: _128  and  _130
REMARK   55  A    between atoms: _130  and  _131
REMARK   56  A    between atoms: _133  and  _135
REMARK   57  A    between atoms: _135  and  _136
REMARK   58  A    between atoms: _138  and  _140
REMARK   59  A    between atoms: _140  and  _141
REMARK   60  A    between atoms: _140  and  _143
REMARK   61  A    between atoms: _143  and  _144
REMARK   62  A    between atoms: _150  and  _152
REMARK   63  A    between atoms: _152  and  _153
REMARK   64  A    between atoms: _152  and  _155
REMARK   65  A    between atoms: _155  and  _156
REMARK   66  A    between atoms: _159  and  _161
REMARK   67  A    between atoms: _161  and  _162
REMARK   68  A    between atoms: _161  and  _164
REMARK   69  A    between atoms: _164  and  _165
REMARK   70  A    between atoms: _169  and  _170
REMARK   71  A    between atoms: _175  and  _177
REMARK   72  A    between atoms: _177  and  _178
REMARK   73  A    between atoms: _177  and  _180
REMARK   74  A    between atoms: _180  and  _181
REMARK   75  A    between atoms: _185  and  _186
REMARK   76  A    between atoms: _191  and  _193
REMARK   77  A    between atoms: _193  and  _194
REMARK   78  A    between atoms: _193  and  _196
REMARK   79  A    between atoms: _199  and  _201
REMARK   80  A    between atoms: _201  and  _202
REMARK   81  A    between atoms: _201  and  _204
REMARK   82  A    between atoms: _204  and  _205
REMARK   83  A    between atoms: _210  and  _212
REMARK   84  A    between atoms: _212  and  _213
REMARK   85  A    between atoms: _212  and  _215
REMARK   86  A    between atoms: _215  and  _216
REMARK   87  A    between atoms: _219  and  _221
REMARK   88  A    between atoms: _221  and  _222
REMARK   89  A    between atoms: _221  and  _224
REMARK   90  A    between atoms: _224  and  _225
REMARK   91  A    between atoms: _228  and  _230
REMARK   92  A    between atoms: _230  and  _231
REMARK   93  A    between atoms: _233  and  _235
REMARK   94  A    between atoms: _235  and  _236
REMARK   95  A    between atoms: _235  and  _238
REMARK   96  A    between atoms: _238  and  _239
REMARK   97  A    between atoms: _239  and  _240
REMARK   98  A    between atoms: _240  and  _241
REMARK   99  A    between atoms: _250  and  _252
REMARK  100  A    between atoms: _252  and  _253
REMARK  101  A    between atoms: _252  and  _255
REMARK  102  A    between atoms: _255  and  _256
REMARK  103  A    between atoms: _261  and  _263
REMARK  104  A    between atoms: _263  and  _264
REMARK  105  A    between atoms: _263  and  _266
REMARK  106  A    between atoms: _266  and  _267
REMARK  107  A    between atoms: _267  and  _268
REMARK  108  A    between atoms: _268  and  _269
REMARK  109  A    between atoms: _278  and  _280
REMARK  110  A    between atoms: _280  and  _281
REMARK  111  A    between atoms: _280  and  _283
REMARK  112  A    between atoms: _283  and  _284
REMARK  113  A    between atoms: _287  and  _289
REMARK  114  A    between atoms: _289  and  _290
REMARK  115  A    between atoms: _289  and  _292
REMARK  116  A    between atoms: _292  and  _293
REMARK  117  A    between atoms: _296  and  _298
REMARK  118  A    between atoms: _298  and  _299
REMARK  119  A    between atoms: _298  and  _301
REMARK  120  A    between atoms: _301  and  _302
REMARK  121  A    between atoms: _305  and  _307
REMARK  122  A    between atoms: _307  and  _308
REMARK  123  A    between atoms: _307  and  _310
REMARK  124  A    between atoms: _310  and  _311
REMARK  125  A    between atoms: _314  and  _316
REMARK  126  A    between atoms: _316  and  _317
REMARK  127  A    between atoms: _319  and  _321
REMARK  128  A    between atoms: _321  and  _322
REMARK  129  A    between atoms: _325  and  _327
REMARK  130  A    between atoms: _327  and  _328
REMARK  131  A    between atoms: _327  and  _330
REMARK  132  A    between atoms: _330  and  _331
REMARK  133  A    between atoms: _334  and  _336
REMARK  134  A    between atoms: _336  and  _337
REMARK  135  A    between atoms: _336  and  _339
REMARK  136  A    between atoms: _339  and  _340
REMARK  137  A    between atoms: _343  and  _345
REMARK  138  A    between atoms: _345  and  _346
REMARK  139  A    between atoms: _345  and  _348
REMARK  140  A    between atoms: _348  and  _349
REMARK  141  A    between atoms: _352  and  _354
REMARK  142  A    between atoms: _354  and  _355
REMARK  143  A    between atoms: _354  and  _357
REMARK  144  A    between atoms: _360  and  _362
REMARK  145  A    between atoms: _362  and  _363
REMARK  146  A    between atoms: _362  and  _365
REMARK  147  A    between atoms: _365  and  _366
REMARK  148  A    between atoms: _366  and  _367
REMARK  149  A    between atoms: _367  and  _368
REMARK  150  A    between atoms: _368  and  _369
REMARK  151  A    between atoms: _373  and  _375
REMARK  152  A    between atoms: _375  and  _376
REMARK  153  A    between atoms: _375  and  _378
REMARK  154  A    between atoms: _378  and  _379
REMARK  155  A    between atoms: _379  and  _380
REMARK  156  A    between atoms: _382  and  _384
REMARK  157  A    between atoms: _384  and  _385
REMARK  158  A    between atoms: _384  and  _387
REMARK  159  A    between atoms: _387  and  _388
REMARK  160  A    between atoms: _391  and  _393
REMARK  161  A    between atoms: _393  and  _394
REMARK  162  A    between atoms: _396  and  _398
REMARK  163  A    between atoms: _398  and  _399
REMARK  164  A    between atoms: _401  and  _403
REMARK  165  A    between atoms: _403  and  _404
REMARK  166  A    between atoms: _403  and  _406
REMARK  167  A    between atoms: _406  and  _407
REMARK  168  A    between atoms: _410  and  _412
REMARK  169  A    between atoms: _412  and  _413
REMARK  170  A    between atoms: _415  and  _417
REMARK  171  A    between atoms: _417  and  _418
REMARK  172  A    between atoms: _420  and  _422
REMARK  173  A    between atoms: _422  and  _423
REMARK  174  A    between atoms: _422  and  _425
REMARK  175  A    between atoms: _425  and  _426
REMARK  176  A    between atoms: _432  and  _434
REMARK  177  A    between atoms: _434  and  _435
REMARK  178  A    between atoms: _434  and  _437
REMARK  179  A    between atoms: _437  and  _438
REMARK  180  A    between atoms: _441  and  _443
REMARK  181  A    between atoms: _443  and  _444
REMARK  182  A    between atoms: _443  and  _446
REMARK  183  A    between atoms: _449  and  _451
REMARK  184  A    between atoms: _451  and  _452
REMARK  185  A    between atoms: _451  and  _454
REMARK  186  A    between atoms: _454  and  _455
REMARK  187  A    between atoms: _458  and  _460
REMARK  188  A    between atoms: _460  and  _461
REMARK  189  A    between atoms: _460  and  _463
REMARK  190  A    between atoms: _463  and  _464
REMARK  191  A    between atoms: _468  and  _469
REMARK  192  A    between atoms: _474  and  _476
REMARK  193  A    between atoms: _476  and  _477
REMARK  194  A    between atoms: _476  and  _479
REMARK  195  A    between atoms: _482  and  _484
REMARK  196  A    between atoms: _484  and  _485
REMARK  197  A    between atoms: _484  and  _487
REMARK  198  A    between atoms: _487  and  _488
REMARK  199  A    between atoms: _493  and  _495
REMARK  200  A    between atoms: _495  and  _496
REMARK  201  A    between atoms: _495  and  _498
REMARK  202  A    between atoms: _498  and  _499
REMARK  203  A    between atoms: _502  and  _504
REMARK  204  A    between atoms: _504  and  _505
REMARK  205  A    between atoms: _504  and  _507
REMARK  206  A    between atoms: _507  and  _508
REMARK  207  A    between atoms: _511  and  _513
REMARK  208  A    between atoms: _513  and  _514
REMARK  209  A    between atoms: _516  and  _518
REMARK  210  A    between atoms: _518  and  _519
REMARK  211  A    between atoms: _518  and  _521
REMARK  212  A    between atoms: _521  and  _522
REMARK  213  A    between atoms: _522  and  _523
REMARK  214  A    between atoms: _523  and  _524
REMARK  215  A    between atoms: _533  and  _535
REMARK  216  A    between atoms: _535  and  _536
REMARK  217  A    between atoms: _535  and  _538
REMARK  218  A    between atoms: _538  and  _539
REMARK                            x       y       z     vdW  Elec       q    Type
REMARK                         _______ _______ _______ _____ _____    ______ ____
ROOT
ATOM      1  C   GLY A   5      19.777  31.181  20.446  0.00  0.00    +0.243 C 
ATOM      2  N   ALA A   6      18.506  30.887  20.716  0.00  0.00    -0.297 N 
ATOM      3  H   ALA A   6      18.293  29.993  21.203  0.00  0.00    +0.150 HD
ATOM      4  O   GLY A   5      20.121  32.234  19.910  0.00  0.00    -0.273 OA
ENDROOT
BRANCH   2   5
ATOM      5  CA  ALA A   6      17.402  31.768  20.357  0.00  0.00    +0.149 C 
ATOM      6  CB  ALA A   6      16.316  30.986  19.624  0.00  0.00    +0.031 C 
BRANCH   5   7
ATOM      7  C   ALA A   6      16.833  32.397  21.620  0.00  0.00    +0.241 C 
ATOM      8  O   ALA A   6      16.382  31.676  22.526  0.00  0.00    -0.273 OA
ATOM      9  N   ASP A   7      16.869  33.729  21.696  0.00  0.00    -0.297 N 
ATOM     10  H   ASP A   7      17.341  34.270  20.944  0.00  0.00    +0.150 HD
BRANCH   9  11
ATOM     11  CA  ASP A   7      16.253  34.448  22.826  0.00  0.00    +0.160 C 
BRANCH  11  12
ATOM     12  C   ASP A   7      14.745  34.266  22.800  0.00  0.00    +0.241 C 
ATOM     13  O   ASP A   7      14.091  34.186  23.846  0.00  0.00    -0.273 OA
ATOM     14  N   ASP A   8      14.205  34.235  21.586  0.00  0.00    -0.297 N 
ATOM     15  H   ASP A   8      14.837  34.190  20.761  0.00  0.00    +0.150 HD
BRANCH  14  16
ATOM     16  CA  ASP A   8      12.772  34.261  21.361  0.00  0.00    +0.160 C 
BRANCH  16  17
ATOM     17  C   ASP A   8      12.336  33.083  20.497  0.00  0.00    +0.241 C 
ATOM     18  N   THR A   9      11.048  32.807  20.566  0.00  0.00    -0.295 N 
ATOM     19  H   THR A   9      10.443  33.421  21.148  0.00  0.00    +0.150 HD
ATOM     20  O   ASP A   8      13.130  32.469  19.773  0.00  0.00    -0.273 OA
BRANCH  18  21
ATOM     21  CA  THR A   9      10.434  31.697  19.876  0.00  0.00    +0.176 C 
BRANCH  21  22
ATOM     22  C   THR A   9       9.884  32.210  18.541  0.00  0.00    +0.243 C 
ATOM     23  O   THR A   9       9.187  33.237  18.491  0.00  0.00    -0.273 OA
ATOM     24  N   VAL A  10      10.248  31.507  17.469  0.00  0.00    -0.298 N 
ATOM     25  H   VAL A  10      10.808  30.643  17.616  0.00  0.00    +0.150 HD
BRANCH  24  26
ATOM     26  CA  VAL A  10       9.905  31.881  16.095  0.00  0.00    +0.137 C 
BRANCH  26  27
ATOM     27  CB  VAL A  10      11.147  32.280  15.251  0.00  0.00    +0.026 C 
ATOM     28  CG2 VAL A  10      12.069  33.220  16.033  0.00  0.00    +0.002 C 
ATOM     29  CG1 VAL A  10      10.703  32.941  13.923  0.00  0.00    +0.002 C 
ENDBRANCH  26  27
BRANCH  26  30
ATOM     30  C   VAL A  10       9.217  30.707  15.410  0.00  0.00    +0.227 C 
ATOM     31  O   VAL A  10       9.800  29.621  15.272  0.00  0.00    -0.286 OA
ENDBRANCH  26  30
ENDBRANCH  24  26
ENDBRANCH  21  22
BRANCH  21  32
ATOM     32  CB  THR A   9       9.322  31.075  20.769  0.00  0.00    +0.137 C 
ATOM     33  CG2 THR A   9       8.488  30.037  20.014  0.00  0.00    +0.034 C 
BRANCH  32  34
ATOM     34  OG1 THR A   9       9.936  30.432  21.888  0.00  0.00    -0.382 OA
ATOM     35  HG1 THR A   9      10.451  31.098  22.408  0.00  0.00    +0.210 HD
ENDBRANCH  32  34
ENDBRANCH  21  32
ENDBRANCH  18  21
ENDBRANCH  16  17
BRANCH  16  36
ATOM     36  CB  ASP A   8      12.367  35.567  20.673  0.00  0.00    +0.143 C 
BRANCH  36  37
ATOM     37  CG  ASP A   8      12.791  36.812  21.444  0.00  0.00    +0.367 C 
ATOM     38  OD2 ASP A   8      12.672  36.836  22.684  0.00  0.00    -0.246 OA
ATOM     39  OD1 ASP A   8      13.222  37.790  20.795  0.00  0.00    -0.246 OA
ENDBRANCH  36  37
ENDBRANCH  16  36
ENDBRANCH  14  16
ENDBRANCH  11  12
BRANCH  11  40
ATOM     40  CB  ASP A   7      16.484  35.959  22.753  0.00  0.00    +0.143 C 
BRANCH  40  41
ATOM     41  CG  ASP A   7      17.944  36.356  22.786  0.00  0.00    +0.367 C 
ATOM     42  OD2 ASP A   7      18.810  35.573  23.240  0.00  0.00    -0.246 OA
ATOM     43  OD1 ASP A   7      18.203  37.509  22.371  0.00  0.00    -0.246 OA
ENDBRANCH  40  41
ENDBRANCH  11  40
ENDBRANCH   9  11
ENDBRANCH   5   7
ENDBRANCH   2   5
BRANCH   1  44
ATOM     44  CA  GLY A   5      20.817  30.142  20.842  0.00  0.00    +0.176 C 
BRANCH  44  47
ATOM     45  C   THR A   4      20.044  28.872  22.787  0.00  0.00    +0.243 C 
ATOM     46  O   THR A   4      20.325  29.792  23.558  0.00  0.00    -0.273 OA
ATOM     47  N   GLY A   5      20.254  28.952  21.472  0.00  0.00    -0.295 N 
ATOM     48  H   GLY A   5      20.008  28.137  20.874  0.00  0.00    +0.150 HD
BRANCH  45  49
ATOM     49  CA  THR A   4      19.391  27.588  23.327  0.00  0.00    +0.176 C 
BRANCH  49  51
ATOM     50  C   ASP A   3      17.661  27.163  21.653  0.00  0.00    +0.241 C 
ATOM     51  N   THR A   4      18.748  26.768  22.306  0.00  0.00    -0.295 N 
ATOM     52  H   THR A   4      19.156  25.838  22.081  0.00  0.00    +0.150 HD
ATOM     53  O   ASP A   3      17.108  28.249  21.862  0.00  0.00    -0.273 OA
BRANCH  50  54
ATOM     54  CA  ASP A   3      17.147  26.200  20.577  0.00  0.00    +0.160 C 
BRANCH  54  56
ATOM     55  C   LEU A   2      16.086  24.031  21.004  0.00  0.00    +0.241 C 
ATOM     56  N   ASP A   3      16.037  25.367  21.035  0.00  0.00    -0.297 N 
ATOM     57  H   ASP A   3      15.179  25.829  21.398  0.00  0.00    +0.150 HD
ATOM     58  O   LEU A   2      17.132  23.386  20.859  0.00  0.00    -0.273 OA
BRANCH  55  59
ATOM     59  CA  LEU A   2      14.744  23.311  21.116  0.00  0.00    +0.149 C 
BRANCH  59  61
ATOM     60  C   LEU A   1      13.889  23.580  18.848  0.00  0.00    +0.238 C 
ATOM     61  N   LEU A   2      14.431  22.802  19.779  0.00  0.00    -0.297 N 
ATOM     62  H   LEU A   2      14.638  21.808  19.553  0.00  0.00    +0.150 HD
ATOM     63  O   LEU A   1      13.460  24.698  19.097  0.00  0.00    -0.274 OA
BRANCH  60  64
ATOM     64  CA  LEU A   1      13.826  23.025  17.424  0.00  0.00    +0.145 C 
BRANCH  64  65
ATOM     65  N   LEU A   1      12.476  23.130  16.918  0.00  0.00    -0.238 NA
ATOM     66  H   LEU A   1      12.238  23.952  16.328  0.00  0.00    +0.142 HD
ENDBRANCH  64  65
BRANCH  64  67
ATOM     67  CB  LEU A   1      14.743  23.835  16.497  0.00  0.00    +0.026 C 
BRANCH  67  68
ATOM     68  CG  LEU A   1      16.189  23.460  16.209  0.00  0.00    +0.002 C 
ATOM     69  CD2 LEU A   1      16.315  22.111  15.596  0.00  0.00    +0.000 C 
ATOM     70  CD1 LEU A   1      16.778  24.531  15.283  0.00  0.00    +0.000 C 
ENDBRANCH  67  68
ENDBRANCH  64  67
ENDBRANCH  60  64
ENDBRANCH  59  61
BRANCH  59  71
ATOM     71  CB  LEU A   2      14.817  22.183  22.133  0.00  0.00    +0.029 C 
BRANCH  71  72
ATOM     72  CG  LEU A   2      13.547  21.347  22.322  0.00  0.00    +0.002 C 
ATOM     73  CD2 LEU A   2      13.819  20.288  23.354  0.00  0.00    +0.000 C 
ATOM     74  CD1 LEU A   2      12.369  22.218  22.746  0.00  0.00    +0.000 C 
ENDBRANCH  71  72
ENDBRANCH  59  71
ENDBRANCH  55  59
ENDBRANCH  54  56
BRANCH  54  75
ATOM     75  CB  ASP A   3      16.706  26.999  19.344  0.00  0.00    +0.143 C 
BRANCH  75  76
ATOM     76  CG  ASP A   3      17.860  27.687  18.642  0.00  0.00    +0.367 C 
ATOM     77  OD2 ASP A   3      18.988  27.691  19.175  0.00  0.00    -0.246 OA
ATOM     78  OD1 ASP A   3      17.649  28.214  17.537  0.00  0.00    -0.246 OA
ENDBRANCH  75  76
ENDBRANCH  54  75
ENDBRANCH  50  54
ENDBRANCH  49  51
BRANCH  49  79
ATOM     79  CB  THR A   4      20.436  26.764  24.104  0.00  0.00    +0.137 C 
ATOM     80  CG2 THR A   4      19.763  25.603  24.798  0.00  0.00    +0.034 C 
BRANCH  79  81
ATOM     81  OG1 THR A   4      21.454  26.271  23.211  0.00  0.00    -0.382 OA
ATOM     82  HG1 THR A   4      21.906  27.035  22.774  0.00  0.00    +0.210 HD
ENDBRANCH  79  81
ENDBRANCH  49  79
ENDBRANCH  45  49
ENDBRANCH  44  47
ENDBRANCH   1  44
TORSDOF 35
REMARK  Name = ../refined-set-2016/2qhy/2qhy_pocket.pdb
REMARK  218 active torsions:
REMARK  status: ('A' for Active; 'I' for Inactive)
REMARK    1  A    between atoms: _1  and  _3
REMARK    2  A    between atoms: _3  and  _4
REMARK    3  A    between atoms: _3  and  _6
REMARK    4  A    between atoms: _6  and  _7
REMARK    5  A    between atoms: _7  and  _8
REMARK    6  A    between atoms: _8  and  _9
REMARK    7  A    between atoms: _18  and  _20
REMARK    8  A    between atoms: _20  and  _21
REMARK    9  A    between atoms: _20  and  _23
REMARK   10  A    between atoms: _23  and  _24
REMARK   11  A    between atoms: _27  and  _29
REMARK   12  A    between atoms: _29  and  _30
REMARK   13  A    between atoms: _29  and  _32
REMARK   14  A    between atoms: _32  and  _33
REMARK   15  A    between atoms: _36  and  _38
REMARK   16  A    between atoms: _38  and  _39
REMARK   17  A    between atoms: _38  and  _41
REMARK   18  A    between atoms: _41  and  _42
REMARK   19  A    between atoms: _45  and  _47
REMARK   20  A    between atoms: _47  and  _48
REMARK   21  A    between atoms: _47  and  _50
REMARK   22  A    between atoms: _50  and  _51
REMARK   23  A    between atoms: _54  and  _56
REMARK   24  A    between atoms: _56  and  _57
REMARK   25  A    between atoms: _59  and  _61
REMARK   26  A    between atoms: _61  and  _62
REMARK   27  A    between atoms: _65  and  _67
REMARK   28  A    between atoms: _67  and  _68
REMARK   29  A    between atoms: _67  and  _70
REMARK   30  A    between atoms: _70  and  _71
REMARK   31  A    between atoms: _74  and  _76
REMARK   32  A    between atoms: _76  and  _77
REMARK   33  A    between atoms: _76  and  _79
REMARK   34  A    between atoms: _79  and  _80
REMARK   35  A    between atoms: _83  and  _85
REMARK   36  A    between atoms: _85  and  _86
REMARK   37  A    between atoms: _85  and  _88
REMARK   38  A    between atoms: _88  and  _89
REMARK   39  A    between atoms: _92  and  _94
REMARK   40  A    between atoms: _94  and  _95
REMARK   41  A    between atoms: _94  and  _97
REMARK   42  A    between atoms: _100  and  _102
REMARK   43  A    between atoms: _102  and  _103
REMARK   44  A    between atoms: _102  and  _105
REMARK   45  A    between atoms: _105  and  _106
REMARK   46  A    between atoms: _109  and  _111
REMARK   47  A    between atoms: _111  and  _112
REMARK   48  A    between atoms: _114  and  _116
REMARK   49  A    between atoms: _116  and  _117
REMARK   50  A    between atoms: _119  and  _121
REMARK   51  A    between atoms: _121  and  _122
REMARK   52  A    between atoms: _121  and  _124
REMARK   53  A    between atoms: _124  and  _125
REMARK   54  A    between atoms: _128  and  _130
REMARK   55  A    between atoms: _130  and  _131
REMARK   56  A    between atoms: _133  and  _135
REMARK   57  A    between atoms: _135  and  _136
REMARK   58  A    between atoms: _138  and  _140
REMARK   59  A    between atoms: _140  and  _141
REMARK   60  A    between atoms: _140  and  _143
REMARK   61  A    between atoms: _143  and  _144
REMARK   62  A    between atoms: _150  and  _152
REMARK   63  A    between atoms: _152  and  _153
REMARK   64  A    between atoms: _152  and  _155
REMARK   65  A    between atoms: _155  and  _156
REMARK   66  A    between atoms: _159  and  _161
REMARK   67  A    between atoms: _161  and  _162
REMARK   68  A    between atoms: _161  and  _164
REMARK   69  A    between atoms: _164  and  _165
REMARK   70  A    between atoms: _169  and  _170
REMARK   71  A    between atoms: _175  and  _177
REMARK   72  A    between atoms: _177  and  _178
REMARK   73  A    between atoms: _177  and  _180
REMARK   74  A    between atoms: _180  and  _181
REMARK   75  A    between atoms: _185  and  _186
REMARK   76  A    between atoms: _191  and  _193
REMARK   77  A    between atoms: _193  and  _194
REMARK   78  A    between atoms: _193  and  _196
REMARK   79  A    between atoms: _199  and  _201
REMARK   80  A    between atoms: _201  and  _202
REMARK   81  A    between atoms: _201  and  _204
REMARK   82  A    between atoms: _204  and  _205
REMARK   83  A    between atoms: _210  and  _212
REMARK   84  A    between atoms: _212  and  _213
REMARK   85  A    between atoms: _212  and  _215
REMARK   86  A    between atoms: _215  and  _216
REMARK   87  A    between atoms: _219  and  _221
REMARK   88  A    between atoms: _221  and  _222
REMARK   89  A    between atoms: _221  and  _224
REMARK   90  A    between atoms: _224  and  _225
REMARK   91  A    between atoms: _228  and  _230
REMARK   92  A    between atoms: _230  and  _231
REMARK   93  A    between atoms: _233  and  _235
REMARK   94  A    between atoms: _235  and  _236
REMARK   95  A    between atoms: _235  and  _238
REMARK   96  A    between atoms: _238  and  _239
REMARK   97  A    between atoms: _239  and  _240
REMARK   98  A    between atoms: _240  and  _241
REMARK   99  A    between atoms: _250  and  _252
REMARK  100  A    between atoms: _252  and  _253
REMARK  101  A    between atoms: _252  and  _255
REMARK  102  A    between atoms: _255  and  _256
REMARK  103  A    between atoms: _261  and  _263
REMARK  104  A    between atoms: _263  and  _264
REMARK  105  A    between atoms: _263  and  _266
REMARK  106  A    between atoms: _266  and  _267
REMARK  107  A    between atoms: _267  and  _268
REMARK  108  A    between atoms: _268  and  _269
REMARK  109  A    between atoms: _278  and  _280
REMARK  110  A    between atoms: _280  and  _281
REMARK  111  A    between atoms: _280  and  _283
REMARK  112  A    between atoms: _283  and  _284
REMARK  113  A    between atoms: _287  and  _289
REMARK  114  A    between atoms: _289  and  _290
REMARK  115  A    between atoms: _289  and  _292
REMARK  116  A    between atoms: _292  and  _293
REMARK  117  A    between atoms: _296  and  _298
REMARK  118  A    between atoms: _298  and  _299
REMARK  119  A    between atoms: _298  and  _301
REMARK  120  A    between atoms: _301  and  _302
REMARK  121  A    between atoms: _305  and  _307
REMARK  122  A    between atoms: _307  and  _308
REMARK  123  A    between atoms: _307  and  _310
REMARK  124  A    between atoms: _310  and  _311
REMARK  125  A    between atoms: _314  and  _316
REMARK  126  A    between atoms: _316  and  _317
REMARK  127  A    between atoms: _319  and  _321
REMARK  128  A    between atoms: _321  and  _322
REMARK  129  A    between atoms: _325  and  _327
REMARK  130  A    between atoms: _327  and  _328
REMARK  131  A    between atoms: _327  and  _330
REMARK  132  A    between atoms: _330  and  _331
REMARK  133  A    between atoms: _334  and  _336
REMARK  134  A    between atoms: _336  and  _337
REMARK  135  A    between atoms: _336  and  _339
REMARK  136  A    between atoms: _339  and  _340
REMARK  137  A    between atoms: _343  and  _345
REMARK  138  A    between atoms: _345  and  _346
REMARK  139  A    between atoms: _345  and  _348
REMARK  140  A    between atoms: _348  and  _349
REMARK  141  A    between atoms: _352  and  _354
REMARK  142  A    between atoms: _354  and  _355
REMARK  143  A    between atoms: _354  and  _357
REMARK  144  A    between atoms: _360  and  _362
REMARK  145  A    between atoms: _362  and  _363
REMARK  146  A    between atoms: _362  and  _365
REMARK  147  A    between atoms: _365  and  _366
REMARK  148  A    between atoms: _366  and  _367
REMARK  149  A    between atoms: _367  and  _368
REMARK  150  A    between atoms: _368  and  _369
REMARK  151  A    between atoms: _373  and  _375
REMARK  152  A    between atoms: _375  and  _376
REMARK  153  A    between atoms: _375  and  _378
REMARK  154  A    between atoms: _378  and  _379
REMARK  155  A    between atoms: _379  and  _380
REMARK  156  A    between atoms: _382  and  _384
REMARK  157  A    between atoms: _384  and  _385
REMARK  158  A    between atoms: _384  and  _387
REMARK  159  A    between atoms: _387  and  _388
REMARK  160  A    between atoms: _391  and  _393
REMARK  161  A    between atoms: _393  and  _394
REMARK  162  A    between atoms: _396  and  _398
REMARK  163  A    between atoms: _398  and  _399
REMARK  164  A    between atoms: _401  and  _403
REMARK  165  A    between atoms: _403  and  _404
REMARK  166  A    between atoms: _403  and  _406
REMARK  167  A    between atoms: _406  and  _407
REMARK  168  A    between atoms: _410  and  _412
REMARK  169  A    between atoms: _412  and  _413
REMARK  170  A    between atoms: _415  and  _417
REMARK  171  A    between atoms: _417  and  _418
REMARK  172  A    between atoms: _420  and  _422
REMARK  173  A    between atoms: _422  and  _423
REMARK  174  A    between atoms: _422  and  _425
REMARK  175  A    between atoms: _425  and  _426
REMARK  176  A    between atoms: _432  and  _434
REMARK  177  A    between atoms: _434  and  _435
REMARK  178  A    between atoms: _434  and  _437
REMARK  179  A    between atoms: _437  and  _438
REMARK  180  A    between atoms: _441  and  _443
REMARK  181  A    between atoms: _443  and  _444
REMARK  182  A    between atoms: _443  and  _446
REMARK  183  A    between atoms: _449  and  _451
REMARK  184  A    between atoms: _451  and  _452
REMARK  185  A    between atoms: _451  and  _454
REMARK  186  A    between atoms: _454  and  _455
REMARK  187  A    between atoms: _458  and  _460
REMARK  188  A    between atoms: _460  and  _461
REMARK  189  A    between atoms: _460  and  _463
REMARK  190  A    between atoms: _463  and  _464
REMARK  191  A    between atoms: _468  and  _469
REMARK  192  A    between atoms: _474  and  _476
REMARK  193  A    between atoms: _476  and  _477
REMARK  194  A    between atoms: _476  and  _479
REMARK  195  A    between atoms: _482  and  _484
REMARK  196  A    between atoms: _484  and  _485
REMARK  197  A    between atoms: _484  and  _487
REMARK  198  A    between atoms: _487  and  _488
REMARK  199  A    between atoms: _493  and  _495
REMARK  200  A    between atoms: _495  and  _496
REMARK  201  A    between atoms: _495  and  _498
REMARK  202  A    between atoms: _498  and  _499
REMARK  203  A    between atoms: _502  and  _504
REMARK  204  A    between atoms: _504  and  _505
REMARK  205  A    between atoms: _504  and  _507
REMARK  206  A    between atoms: _507  and  _508
REMARK  207  A    between atoms: _511  and  _513
REMARK  208  A    between atoms: _513  and  _514
REMARK  209  A    between atoms: _516  and  _518
REMARK  210  A    between atoms: _518  and  _519
REMARK  211  A    between atoms: _518  and  _521
REMARK  212  A    between atoms: _521  and  _522
REMARK  213  A    between atoms: _522  and  _523
REMARK  214  A    between atoms: _523  and  _524
REMARK  215  A    between atoms: _533  and  _535
REMARK  216  A    between atoms: _535  and  _536
REMARK  217  A    between atoms: _535  and  _538
REMARK  218  A    between atoms: _538  and  _539
REMARK                            x       y       z     vdW  Elec       q    Type
REMARK                         _______ _______ _______ _____ _____    ______ ____
ROOT
ATOM      1  C   GLY A   5      21.382  35.954  11.215  0.00  0.00    +0.243 C 
ATOM      2  N   ILE A   6      21.892  34.745  11.033  0.00  0.00    -0.297 N 
ATOM      3  H   ILE A   6      21.668  33.980  11.701  0.00  0.00    +0.150 HD
ATOM      4  O   GLY A   5      21.595  36.892  10.434  0.00  0.00    -0.273 OA
ENDROOT
BRANCH   2   5
ATOM      5  CA  ILE A   6      22.765  34.488   9.900  0.00  0.00    +0.149 C 
BRANCH   5   6
ATOM      6  C   ILE A   6      21.942  34.667   8.625  0.00  0.00    +0.241 C 
ATOM      7  O   ILE A   6      20.839  34.135   8.504  0.00  0.00    -0.273 OA
ATOM      8  N   GLY A   7      22.472  35.463   7.707  0.00  0.00    -0.295 N 
ATOM      9  H   GLY A   7      23.413  35.871   7.878  0.00  0.00    +0.150 HD
BRANCH   8  10
ATOM     10  CA  GLY A   7      21.777  35.787   6.461  0.00  0.00    +0.176 C 
BRANCH  10  11
ATOM     11  C   GLY A   7      21.076  37.135   6.473  0.00  0.00    +0.243 C 
ATOM     12  N   GLY A   8      20.789  37.667   7.656  0.00  0.00    -0.295 N 
ATOM     13  H   GLY A   8      21.048  37.145   8.518  0.00  0.00    +0.150 HD
ATOM     14  O   GLY A   7      20.792  37.683   5.418  0.00  0.00    -0.273 OA
BRANCH  12  15
ATOM     15  CA  GLY A   8      20.123  38.958   7.787  0.00  0.00    +0.176 C 
BRANCH  15  16
ATOM     16  C   GLY A   8      18.828  38.851   8.570  0.00  0.00    +0.243 C 
ATOM     17  O   GLY A   8      18.694  38.002   9.471  0.00  0.00    -0.273 OA
ATOM     18  N   PHE A   9      17.875  39.719   8.239  0.00  0.00    -0.297 N 
ATOM     19  H   PHE A   9      18.003  40.320   7.400  0.00  0.00    +0.150 HD
BRANCH  18  20
ATOM     20  CA  PHE A   9      16.657  39.845   9.027  0.00  0.00    +0.153 C 
BRANCH  20  21
ATOM     21  C   PHE A   9      15.434  39.340   8.269  0.00  0.00    +0.241 C 
ATOM     22  N   ILE A  10      14.438  38.893   9.022  0.00  0.00    -0.298 N 
ATOM     23  H   ILE A  10      14.608  38.729  10.035  0.00  0.00    +0.150 HD
ATOM     24  O   PHE A   9      15.405  39.334   7.039  0.00  0.00    -0.273 OA
BRANCH  22  25
ATOM     25  CA  ILE A  10      13.111  38.623   8.476  0.00  0.00    +0.137 C 
BRANCH  25  26
ATOM     26  C   ILE A  10      12.083  39.427   9.261  0.00  0.00    +0.227 C 
ATOM     27  O   ILE A  10      12.319  39.803  10.426  0.00  0.00    -0.286 OA
ENDBRANCH  25  26
BRANCH  25  28
ATOM     28  CB  ILE A  10      12.740  37.117   8.505  0.00  0.00    +0.026 C 
ATOM     29  CG2 ILE A  10      13.720  36.319   7.642  0.00  0.00    +0.002 C 
BRANCH  28  30
ATOM     30  CG1 ILE A  10      12.698  36.565   9.942  0.00  0.00    +0.002 C 
ATOM     31  CD1 ILE A  10      12.000  35.203  10.053  0.00  0.00    +0.000 C 
ENDBRANCH  28  30
ENDBRANCH  25  28
ENDBRANCH  22  25
ENDBRANCH  20  21
BRANCH  20  32
ATOM     32  CB  PHE A   9      16.428  41.290   9.463  0.00  0.00    +0.055 C 
BRANCH  32  33
ATOM     33  CG  PHE A   9      17.327  41.749  10.590  0.00  0.00    -0.020 A 
ATOM     34  CD2 PHE A   9      16.808  41.992  11.852  0.00  0.00    -0.004 A 
ATOM     35  CE2 PHE A   9      17.623  42.434  12.890  0.00  0.00    -0.000 A 
ATOM     36  CZ  PHE A   9      18.976  42.645  12.669  0.00  0.00    -0.000 A 
ATOM     37  CE1 PHE A   9      19.513  42.420  11.406  0.00  0.00    -0.000 A 
ATOM     38  CD1 PHE A   9      18.684  41.976  10.369  0.00  0.00    -0.004 A 
ENDBRANCH  32  33
ENDBRANCH  20  32
ENDBRANCH  18  20
ENDBRANCH  15  16
ENDBRANCH  12  15
ENDBRANCH  10  11
ENDBRANCH   8  10
ENDBRANCH   5   6
BRANCH   5  39
ATOM     39  CB  ILE A   6      23.450  33.110   9.993  0.00  0.00    +0.027 C 
ATOM     40  CG2 ILE A   6      23.967  32.650   8.634  0.00  0.00    +0.002 C 
BRANCH  39  41
ATOM     41  CG1 ILE A   6      24.618  33.220  10.986  0.00  0.00    +0.002 C 
ATOM     42  CD1 ILE A   6      25.261  31.945  11.350  0.00  0.00    +0.000 C 
ENDBRANCH  39  41
ENDBRANCH   5  39
ENDBRANCH   2   5
BRANCH   1  43
ATOM     43  CA  GLY A   5      20.498  36.131  12.434  0.00  0.00    +0.176 C 
BRANCH  43  46
ATOM     44  C   GLY A   4      18.879  37.787  13.142  0.00  0.00    +0.243 C 
ATOM     45  O   GLY A   4      18.921  37.442  14.318  0.00  0.00    -0.273 OA
ATOM     46  N   GLY A   5      19.514  37.153  12.171  0.00  0.00    -0.295 N 
ATOM     47  H   GLY A   5      19.297  37.399  11.184  0.00  0.00    +0.150 HD
BRANCH  44  48
ATOM     48  CA  GLY A   4      18.084  38.985  12.701  0.00  0.00    +0.176 C 
BRANCH  48  50
ATOM     49  C   ILE A   3      15.697  39.263  12.977  0.00  0.00    +0.241 C 
ATOM     50  N   GLY A   4      16.907  39.183  13.519  0.00  0.00    -0.295 N 
ATOM     51  H   GLY A   4      17.010  39.264  14.551  0.00  0.00    +0.150 HD
ATOM     52  O   ILE A   3      15.459  38.992  11.796  0.00  0.00    -0.273 OA
BRANCH  49  53
ATOM     53  CA  ILE A   3      14.598  39.741  13.914  0.00  0.00    +0.149 C 
BRANCH  53  56
ATOM     54  C   MET A   2      13.236  41.732  13.551  0.00  0.00    +0.241 C 
ATOM     55  O   MET A   2      13.579  42.229  14.628  0.00  0.00    -0.273 OA
ATOM     56  N   ILE A   3      13.616  40.517  13.154  0.00  0.00    -0.297 N 
ATOM     57  H   ILE A   3      13.207  40.113  12.288  0.00  0.00    +0.150 HD
BRANCH  54  58
ATOM     58  CA  MET A   2      12.294  42.493  12.638  0.00  0.00    +0.149 C 
BRANCH  58  60
ATOM     59  C   LYS A   1       9.962  42.597  13.355  0.00  0.00    +0.238 C 
ATOM     60  N   MET A   2      11.224  42.992  13.483  0.00  0.00    -0.297 N 
ATOM     61  H   MET A   2      11.455  43.688  14.220  0.00  0.00    +0.150 HD
ATOM     62  O   LYS A   1       9.554  41.896  12.417  0.00  0.00    -0.274 OA
BRANCH  59  63
ATOM     63  CA  LYS A   1       9.015  43.101  14.441  0.00  0.00    +0.145 C 
BRANCH  63  64
ATOM     64  N   LYS A   1       7.674  43.125  13.917  0.00  0.00    -0.238 NA
ATOM     65  H   LYS A   1       7.403  42.427  13.195  0.00  0.00    +0.142 HD
ENDBRANCH  63  64
BRANCH  63  66
ATOM     66  CB  LYS A   1       9.050  42.199  15.679  0.00  0.00    +0.026 C 
BRANCH  66  67
ATOM     67  CG  LYS A   1      10.372  42.132  16.444  0.00  0.00    -0.000 C 
BRANCH  67  68
ATOM     68  CD  LYS A   1      10.214  41.205  17.665  0.00  0.00    -0.024 C 
BRANCH  68  69
ATOM     69  CE  LYS A   1      11.506  41.037  18.439  0.00  0.00    -0.086 C 
BRANCH  69  70
ATOM     70  NZ  LYS A   1      11.782  42.184  19.339  0.00  0.00    +0.380 N 
ATOM     71  HZ1 LYS A   1      11.007  42.279  20.026  0.00  0.00    -0.089 HD
ATOM     72  HZ2 LYS A   1      12.676  42.019  19.844  0.00  0.00    -0.089 HD
ATOM     73  HZ3 LYS A   1      11.856  43.055  18.776  0.00  0.00    -0.089 HD
ENDBRANCH  69  70
ENDBRANCH  68  69
ENDBRANCH  67  68
ENDBRANCH  66  67
ENDBRANCH  63  66
ENDBRANCH  59  63
ENDBRANCH  58  60
BRANCH  58  74
ATOM     74  CB  MET A   2      13.029  43.662  11.977  0.00  0.00    +0.041 C 
BRANCH  74  75
ATOM     75  CG  MET A   2      12.248  44.318  10.853  0.00  0.00    +0.060 C 
BRANCH  75  76
ATOM     76  SD  MET A   2      12.268  43.316   9.356  0.00  0.00    -0.139 S 
ATOM     77  CE  MET A   2      13.901  43.704   8.728  0.00  0.00    +0.069 C 
ENDBRANCH  75  76
ENDBRANCH  74  75
ENDBRANCH  58  74
ENDBRANCH  54  58
ENDBRANCH  53  56
BRANCH  53  78
ATOM     78  CB  ILE A   3      13.965  38.552  14.656  0.00  0.00    +0.027 C 
ATOM     79  CG2 ILE A   3      13.074  39.075  15.769  0.00  0.00    +0.002 C 
BRANCH  78  80
ATOM     80  CG1 ILE A   3      13.178  37.658  13.685  0.00  0.00    +0.002 C 
ATOM     81  CD1 ILE A   3      12.781  36.331  14.268  0.00  0.00    +0.000 C 
ENDBRANCH  78  80
ENDBRANCH  53  78
ENDBRANCH  49  53
ENDBRANCH  48  50
ENDBRANCH  44  48
ENDBRANCH  43  46
ENDBRANCH   1  43
TORSDOF 36
REMARK  Name = ../refined-set-2016/2qhy/2qhy_pocket.pdb
REMARK  218 active torsions:
REMARK  status: ('A' for Active; 'I' for Inactive)
REMARK    1  A    between atoms: _1  and  _3
REMARK    2  A    between atoms: _3  and  _4
REMARK    3  A    between atoms: _3  and  _6
REMARK    4  A    between atoms: _6  and  _7
REMARK    5  A    between atoms: _7  and  _8
REMARK    6  A    between atoms: _8  and  _9
REMARK    7  A    between atoms: _18  and  _20
REMARK    8  A    between atoms: _20  and  _21
REMARK    9  A    between atoms: _20  and  _23
REMARK   10  A    between atoms: _23  and  _24
REMARK   11  A    between atoms: _27  and  _29
REMARK   12  A    between atoms: _29  and  _30
REMARK   13  A    between atoms: _29  and  _32
REMARK   14  A    between atoms: _32  and  _33
REMARK   15  A    between atoms: _36  and  _38
REMARK   16  A    between atoms: _38  and  _39
REMARK   17  A    between atoms: _38  and  _41
REMARK   18  A    between atoms: _41  and  _42
REMARK   19  A    between atoms: _45  and  _47
REMARK   20  A    between atoms: _47  and  _48
REMARK   21  A    between atoms: _47  and  _50
REMARK   22  A    between atoms: _50  and  _51
REMARK   23  A    between atoms: _54  and  _56
REMARK   24  A    between atoms: _56  and  _57
REMARK   25  A    between atoms: _59  and  _61
REMARK   26  A    between atoms: _61  and  _62
REMARK   27  A    between atoms: _65  and  _67
REMARK   28  A    between atoms: _67  and  _68
REMARK   29  A    between atoms: _67  and  _70
REMARK   30  A    between atoms: _70  and  _71
REMARK   31  A    between atoms: _74  and  _76
REMARK   32  A    between atoms: _76  and  _77
REMARK   33  A    between atoms: _76  and  _79
REMARK   34  A    between atoms: _79  and  _80
REMARK   35  A    between atoms: _83  and  _85
REMARK   36  A    between atoms: _85  and  _86
REMARK   37  A    between atoms: _85  and  _88
REMARK   38  A    between atoms: _88  and  _89
REMARK   39  A    between atoms: _92  and  _94
REMARK   40  A    between atoms: _94  and  _95
REMARK   41  A    between atoms: _94  and  _97
REMARK   42  A    between atoms: _100  and  _102
REMARK   43  A    between atoms: _102  and  _103
REMARK   44  A    between atoms: _102  and  _105
REMARK   45  A    between atoms: _105  and  _106
REMARK   46  A    between atoms: _109  and  _111
REMARK   47  A    between atoms: _111  and  _112
REMARK   48  A    between atoms: _114  and  _116
REMARK   49  A    between atoms: _116  and  _117
REMARK   50  A    between atoms: _119  and  _121
REMARK   51  A    between atoms: _121  and  _122
REMARK   52  A    between atoms: _121  and  _124
REMARK   53  A    between atoms: _124  and  _125
REMARK   54  A    between atoms: _128  and  _130
REMARK   55  A    between atoms: _130  and  _131
REMARK   56  A    between atoms: _133  and  _135
REMARK   57  A    between atoms: _135  and  _136
REMARK   58  A    between atoms: _138  and  _140
REMARK   59  A    between atoms: _140  and  _141
REMARK   60  A    between atoms: _140  and  _143
REMARK   61  A    between atoms: _143  and  _144
REMARK   62  A    between atoms: _150  and  _152
REMARK   63  A    between atoms: _152  and  _153
REMARK   64  A    between atoms: _152  and  _155
REMARK   65  A    between atoms: _155  and  _156
REMARK   66  A    between atoms: _159  and  _161
REMARK   67  A    between atoms: _161  and  _162
REMARK   68  A    between atoms: _161  and  _164
REMARK   69  A    between atoms: _164  and  _165
REMARK   70  A    between atoms: _169  and  _170
REMARK   71  A    between atoms: _175  and  _177
REMARK   72  A    between atoms: _177  and  _178
REMARK   73  A    between atoms: _177  and  _180
REMARK   74  A    between atoms: _180  and  _181
REMARK   75  A    between atoms: _185  and  _186
REMARK   76  A    between atoms: _191  and  _193
REMARK   77  A    between atoms: _193  and  _194
REMARK   78  A    between atoms: _193  and  _196
REMARK   79  A    between atoms: _199  and  _201
REMARK   80  A    between atoms: _201  and  _202
REMARK   81  A    between atoms: _201  and  _204
REMARK   82  A    between atoms: _204  and  _205
REMARK   83  A    between atoms: _210  and  _212
REMARK   84  A    between atoms: _212  and  _213
REMARK   85  A    between atoms: _212  and  _215
REMARK   86  A    between atoms: _215  and  _216
REMARK   87  A    between atoms: _219  and  _221
REMARK   88  A    between atoms: _221  and  _222
REMARK   89  A    between atoms: _221  and  _224
REMARK   90  A    between atoms: _224  and  _225
REMARK   91  A    between atoms: _228  and  _230
REMARK   92  A    between atoms: _230  and  _231
REMARK   93  A    between atoms: _233  and  _235
REMARK   94  A    between atoms: _235  and  _236
REMARK   95  A    between atoms: _235  and  _238
REMARK   96  A    between atoms: _238  and  _239
REMARK   97  A    between atoms: _239  and  _240
REMARK   98  A    between atoms: _240  and  _241
REMARK   99  A    between atoms: _250  and  _252
REMARK  100  A    between atoms: _252  and  _253
REMARK  101  A    between atoms: _252  and  _255
REMARK  102  A    between atoms: _255  and  _256
REMARK  103  A    between atoms: _261  and  _263
REMARK  104  A    between atoms: _263  and  _264
REMARK  105  A    between atoms: _263  and  _266
REMARK  106  A    between atoms: _266  and  _267
REMARK  107  A    between atoms: _267  and  _268
REMARK  108  A    between atoms: _268  and  _269
REMARK  109  A    between atoms: _278  and  _280
REMARK  110  A    between atoms: _280  and  _281
REMARK  111  A    between atoms: _280  and  _283
REMARK  112  A    between atoms: _283  and  _284
REMARK  113  A    between atoms: _287  and  _289
REMARK  114  A    between atoms: _289  and  _290
REMARK  115  A    between atoms: _289  and  _292
REMARK  116  A    between atoms: _292  and  _293
REMARK  117  A    between atoms: _296  and  _298
REMARK  118  A    between atoms: _298  and  _299
REMARK  119  A    between atoms: _298  and  _301
REMARK  120  A    between atoms: _301  and  _302
REMARK  121  A    between atoms: _305  and  _307
REMARK  122  A    between atoms: _307  and  _308
REMARK  123  A    between atoms: _307  and  _310
REMARK  124  A    between atoms: _310  and  _311
REMARK  125  A    between atoms: _314  and  _316
REMARK  126  A    between atoms: _316  and  _317
REMARK  127  A    between atoms: _319  and  _321
REMARK  128  A    between atoms: _321  and  _322
REMARK  129  A    between atoms: _325  and  _327
REMARK  130  A    between atoms: _327  and  _328
REMARK  131  A    between atoms: _327  and  _330
REMARK  132  A    between atoms: _330  and  _331
REMARK  133  A    between atoms: _334  and  _336
REMARK  134  A    between atoms: _336  and  _337
REMARK  135  A    between atoms: _336  and  _339
REMARK  136  A    between atoms: _339  and  _340
REMARK  137  A    between atoms: _343  and  _345
REMARK  138  A    between atoms: _345  and  _346
REMARK  139  A    between atoms: _345  and  _348
REMARK  140  A    between atoms: _348  and  _349
REMARK  141  A    between atoms: _352  and  _354
REMARK  142  A    between atoms: _354  and  _355
REMARK  143  A    between atoms: _354  and  _357
REMARK  144  A    between atoms: _360  and  _362
REMARK  145  A    between atoms: _362  and  _363
REMARK  146  A    between atoms: _362  and  _365
REMARK  147  A    between atoms: _365  and  _366
REMARK  148  A    between atoms: _366  and  _367
REMARK  149  A    between atoms: _367  and  _368
REMARK  150  A    between atoms: _368  and  _369
REMARK  151  A    between atoms: _373  and  _375
REMARK  152  A    between atoms: _375  and  _376
REMARK  153  A    between atoms: _375  and  _378
REMARK  154  A    between atoms: _378  and  _379
REMARK  155  A    between atoms: _379  and  _380
REMARK  156  A    between atoms: _382  and  _384
REMARK  157  A    between atoms: _384  and  _385
REMARK  158  A    between atoms: _384  and  _387
REMARK  159  A    between atoms: _387  and  _388
REMARK  160  A    between atoms: _391  and  _393
REMARK  161  A    between atoms: _393  and  _394
REMARK  162  A    between atoms: _396  and  _398
REMARK  163  A    between atoms: _398  and  _399
REMARK  164  A    between atoms: _401  and  _403
REMARK  165  A    between atoms: _403  and  _404
REMARK  166  A    between atoms: _403  and  _406
REMARK  167  A    between atoms: _406  and  _407
REMARK  168  A    between atoms: _410  and  _412
REMARK  169  A    between atoms: _412  and  _413
REMARK  170  A    between atoms: _415  and  _417
REMARK  171  A    between atoms: _417  and  _418
REMARK  172  A    between atoms: _420  and  _422
REMARK  173  A    between atoms: _422  and  _423
REMARK  174  A    between atoms: _422  and  _425
REMARK  175  A    between atoms: _425  and  _426
REMARK  176  A    between atoms: _432  and  _434
REMARK  177  A    between atoms: _434  and  _435
REMARK  178  A    between atoms: _434  and  _437
REMARK  179  A    between atoms: _437  and  _438
REMARK  180  A    between atoms: _441  and  _443
REMARK  181  A    between atoms: _443  and  _444
REMARK  182  A    between atoms: _443  and  _446
REMARK  183  A    between atoms: _449  and  _451
REMARK  184  A    between atoms: _451  and  _452
REMARK  185  A    between atoms: _451  and  _454
REMARK  186  A    between atoms: _454  and  _455
REMARK  187  A    between atoms: _458  and  _460
REMARK  188  A    between atoms: _460  and  _461
REMARK  189  A    between atoms: _460  and  _463
REMARK  190  A    between atoms: _463  and  _464
REMARK  191  A    between atoms: _468  and  _469
REMARK  192  A    between atoms: _474  and  _476
REMARK  193  A    between atoms: _476  and  _477
REMARK  194  A    between atoms: _476  and  _479
REMARK  195  A    between atoms: _482  and  _484
REMARK  196  A    between atoms: _484  and  _485
REMARK  197  A    between atoms: _484  and  _487
REMARK  198  A    between atoms: _487  and  _488
REMARK  199  A    between atoms: _493  and  _495
REMARK  200  A    between atoms: _495  and  _496
REMARK  201  A    between atoms: _495  and  _498
REMARK  202  A    between atoms: _498  and  _499
REMARK  203  A    between atoms: _502  and  _504
REMARK  204  A    between atoms: _504  and  _505
REMARK  205  A    between atoms: _504  and  _507
REMARK  206  A    between atoms: _507  and  _508
REMARK  207  A    between atoms: _511  and  _513
REMARK  208  A    between atoms: _513  and  _514
REMARK  209  A    between atoms: _516  and  _518
REMARK  210  A    between atoms: _518  and  _519
REMARK  211  A    between atoms: _518  and  _521
REMARK  212  A    between atoms: _521  and  _522
REMARK  213  A    between atoms: _522  and  _523
REMARK  214  A    between atoms: _523  and  _524
REMARK  215  A    between atoms: _533  and  _535
REMARK  216  A    between atoms: _535  and  _536
REMARK  217  A    between atoms: _535  and  _538
REMARK  218  A    between atoms: _538  and  _539
REMARK                            x       y       z     vdW  Elec       q    Type
REMARK                         _______ _______ _______ _____ _____    ______ ____
ROOT
ATOM      1  CA  VAL A   1       7.692  38.672  11.906  0.00  0.00    +0.133 C 
ENDROOT
BRANCH   1   2
ATOM      2  CB  VAL A   1       8.407  37.839  12.993  0.00  0.00    +0.023 C 
ATOM      3  CG2 VAL A   1       9.092  38.741  14.028  0.00  0.00    +0.002 C 
ATOM      4  CG1 VAL A   1       9.394  36.863  12.353  0.00  0.00    +0.002 C 
ENDBRANCH   1   2
BRANCH   1   5
ATOM      5  N   VAL A   1       8.613  39.546  11.170  0.00  0.00    -0.239 NA
ATOM      6  H   VAL A   1       9.023  40.370  11.655  0.00  0.00    +0.142 HD
ENDBRANCH   1   5
BRANCH   1   7
ATOM      7  C   VAL A   1       6.562  39.450  12.553  0.00  0.00    +0.224 C 
ATOM      8  O   VAL A   1       6.589  40.681  12.620  0.00  0.00    -0.287 OA
ENDBRANCH   1   7
TORSDOF 3
REMARK  Name = ../refined-set-2016/2qhy/2qhy_pocket.pdb
REMARK  218 active torsions:
REMARK  status: ('A' for Active; 'I' for Inactive)
REMARK    1  A    between atoms: _1  and  _3
REMARK    2  A    between atoms: _3  and  _4
REMARK    3  A    between atoms: _3  and  _6
REMARK    4  A    between atoms: _6  and  _7
REMARK    5  A    between atoms: _7  and  _8
REMARK    6  A    between atoms: _8  and  _9
REMARK    7  A    between atoms: _18  and  _20
REMARK    8  A    between atoms: _20  and  _21
REMARK    9  A    between atoms: _20  and  _23
REMARK   10  A    between atoms: _23  and  _24
REMARK   11  A    between atoms: _27  and  _29
REMARK   12  A    between atoms: _29  and  _30
REMARK   13  A    between atoms: _29  and  _32
REMARK   14  A    between atoms: _32  and  _33
REMARK   15  A    between atoms: _36  and  _38
REMARK   16  A    between atoms: _38  and  _39
REMARK   17  A    between atoms: _38  and  _41
REMARK   18  A    between atoms: _41  and  _42
REMARK   19  A    between atoms: _45  and  _47
REMARK   20  A    between atoms: _47  and  _48
REMARK   21  A    between atoms: _47  and  _50
REMARK   22  A    between atoms: _50  and  _51
REMARK   23  A    between atoms: _54  and  _56
REMARK   24  A    between atoms: _56  and  _57
REMARK   25  A    between atoms: _59  and  _61
REMARK   26  A    between atoms: _61  and  _62
REMARK   27  A    between atoms: _65  and  _67
REMARK   28  A    between atoms: _67  and  _68
REMARK   29  A    between atoms: _67  and  _70
REMARK   30  A    between atoms: _70  and  _71
REMARK   31  A    between atoms: _74  and  _76
REMARK   32  A    between atoms: _76  and  _77
REMARK   33  A    between atoms: _76  and  _79
REMARK   34  A    between atoms: _79  and  _80
REMARK   35  A    between atoms: _83  and  _85
REMARK   36  A    between atoms: _85  and  _86
REMARK   37  A    between atoms: _85  and  _88
REMARK   38  A    between atoms: _88  and  _89
REMARK   39  A    between atoms: _92  and  _94
REMARK   40  A    between atoms: _94  and  _95
REMARK   41  A    between atoms: _94  and  _97
REMARK   42  A    between atoms: _100  and  _102
REMARK   43  A    between atoms: _102  and  _103
REMARK   44  A    between atoms: _102  and  _105
REMARK   45  A    between atoms: _105  and  _106
REMARK   46  A    between atoms: _109  and  _111
REMARK   47  A    between atoms: _111  and  _112
REMARK   48  A    between atoms: _114  and  _116
REMARK   49  A    between atoms: _116  and  _117
REMARK   50  A    between atoms: _119  and  _121
REMARK   51  A    between atoms: _121  and  _122
REMARK   52  A    between atoms: _121  and  _124
REMARK   53  A    between atoms: _124  and  _125
REMARK   54  A    between atoms: _128  and  _130
REMARK   55  A    between atoms: _130  and  _131
REMARK   56  A    between atoms: _133  and  _135
REMARK   57  A    between atoms: _135  and  _136
REMARK   58  A    between atoms: _138  and  _140
REMARK   59  A    between atoms: _140  and  _141
REMARK   60  A    between atoms: _140  and  _143
REMARK   61  A    between atoms: _143  and  _144
REMARK   62  A    between atoms: _150  and  _152
REMARK   63  A    between atoms: _152  and  _153
REMARK   64  A    between atoms: _152  and  _155
REMARK   65  A    between atoms: _155  and  _156
REMARK   66  A    between atoms: _159  and  _161
REMARK   67  A    between atoms: _161  and  _162
REMARK   68  A    between atoms: _161  and  _164
REMARK   69  A    between atoms: _164  and  _165
REMARK   70  A    between atoms: _169  and  _170
REMARK   71  A    between atoms: _175  and  _177
REMARK   72  A    between atoms: _177  and  _178
REMARK   73  A    between atoms: _177  and  _180
REMARK   74  A    between atoms: _180  and  _181
REMARK   75  A    between atoms: _185  and  _186
REMARK   76  A    between atoms: _191  and  _193
REMARK   77  A    between atoms: _193  and  _194
REMARK   78  A    between atoms: _193  and  _196
REMARK   79  A    between atoms: _199  and  _201
REMARK   80  A    between atoms: _201  and  _202
REMARK   81  A    between atoms: _201  and  _204
REMARK   82  A    between atoms: _204  and  _205
REMARK   83  A    between atoms: _210  and  _212
REMARK   84  A    between atoms: _212  and  _213
REMARK   85  A    between atoms: _212  and  _215
REMARK   86  A    between atoms: _215  and  _216
REMARK   87  A    between atoms: _219  and  _221
REMARK   88  A    between atoms: _221  and  _222
REMARK   89  A    between atoms: _221  and  _224
REMARK   90  A    between atoms: _224  and  _225
REMARK   91  A    between atoms: _228  and  _230
REMARK   92  A    between atoms: _230  and  _231
REMARK   93  A    between atoms: _233  and  _235
REMARK   94  A    between atoms: _235  and  _236
REMARK   95  A    between atoms: _235  and  _238
REMARK   96  A    between atoms: _238  and  _239
REMARK   97  A    between atoms: _239  and  _240
REMARK   98  A    between atoms: _240  and  _241
REMARK   99  A    between atoms: _250  and  _252
REMARK  100  A    between atoms: _252  and  _253
REMARK  101  A    between atoms: _252  and  _255
REMARK  102  A    between atoms: _255  and  _256
REMARK  103  A    between atoms: _261  and  _263
REMARK  104  A    between atoms: _263  and  _264
REMARK  105  A    between atoms: _263  and  _266
REMARK  106  A    between atoms: _266  and  _267
REMARK  107  A    between atoms: _267  and  _268
REMARK  108  A    between atoms: _268  and  _269
REMARK  109  A    between atoms: _278  and  _280
REMARK  110  A    between atoms: _280  and  _281
REMARK  111  A    between atoms: _280  and  _283
REMARK  112  A    between atoms: _283  and  _284
REMARK  113  A    between atoms: _287  and  _289
REMARK  114  A    between atoms: _289  and  _290
REMARK  115  A    between atoms: _289  and  _292
REMARK  116  A    between atoms: _292  and  _293
REMARK  117  A    between atoms: _296  and  _298
REMARK  118  A    between atoms: _298  and  _299
REMARK  119  A    between atoms: _298  and  _301
REMARK  120  A    between atoms: _301  and  _302
REMARK  121  A    between atoms: _305  and  _307
REMARK  122  A    between atoms: _307  and  _308
REMARK  123  A    between atoms: _307  and  _310
REMARK  124  A    between atoms: _310  and  _311
REMARK  125  A    between atoms: _314  and  _316
REMARK  126  A    between atoms: _316  and  _317
REMARK  127  A    between atoms: _319  and  _321
REMARK  128  A    between atoms: _321  and  _322
REMARK  129  A    between atoms: _325  and  _327
REMARK  130  A    between atoms: _327  and  _328
REMARK  131  A    between atoms: _327  and  _330
REMARK  132  A    between atoms: _330  and  _331
REMARK  133  A    between atoms: _334  and  _336
REMARK  134  A    between atoms: _336  and  _337
REMARK  135  A    between atoms: _336  and  _339
REMARK  136  A    between atoms: _339  and  _340
REMARK  137  A    between atoms: _343  and  _345
REMARK  138  A    between atoms: _345  and  _346
REMARK  139  A    between atoms: _345  and  _348
REMARK  140  A    between atoms: _348  and  _349
REMARK  141  A    between atoms: _352  and  _354
REMARK  142  A    between atoms: _354  and  _355
REMARK  143  A    between atoms: _354  and  _357
REMARK  144  A    between atoms: _360  and  _362
REMARK  145  A    between atoms: _362  and  _363
REMARK  146  A    between atoms: _362  and  _365
REMARK  147  A    between atoms: _365  and  _366
REMARK  148  A    between atoms: _366  and  _367
REMARK  149  A    between atoms: _367  and  _368
REMARK  150  A    between atoms: _368  and  _369
REMARK  151  A    between atoms: _373  and  _375
REMARK  152  A    between atoms: _375  and  _376
REMARK  153  A    between atoms: _375  and  _378
REMARK  154  A    between atoms: _378  and  _379
REMARK  155  A    between atoms: _379  and  _380
REMARK  156  A    between atoms: _382  and  _384
REMARK  157  A    between atoms: _384  and  _385
REMARK  158  A    between atoms: _384  and  _387
REMARK  159  A    between atoms: _387  and  _388
REMARK  160  A    between atoms: _391  and  _393
REMARK  161  A    between atoms: _393  and  _394
REMARK  162  A    between atoms: _396  and  _398
REMARK  163  A    between atoms: _398  and  _399
REMARK  164  A    between atoms: _401  and  _403
REMARK  165  A    between atoms: _403  and  _404
REMARK  166  A    between atoms: _403  and  _406
REMARK  167  A    between atoms: _406  and  _407
REMARK  168  A    between atoms: _410  and  _412
REMARK  169  A    between atoms: _412  and  _413
REMARK  170  A    between atoms: _415  and  _417
REMARK  171  A    between atoms: _417  and  _418
REMARK  172  A    between atoms: _420  and  _422
REMARK  173  A    between atoms: _422  and  _423
REMARK  174  A    between atoms: _422  and  _425
REMARK  175  A    between atoms: _425  and  _426
REMARK  176  A    between atoms: _432  and  _434
REMARK  177  A    between atoms: _434  and  _435
REMARK  178  A    between atoms: _434  and  _437
REMARK  179  A    between atoms: _437  and  _438
REMARK  180  A    between atoms: _441  and  _443
REMARK  181  A    between atoms: _443  and  _444
REMARK  182  A    between atoms: _443  and  _446
REMARK  183  A    between atoms: _449  and  _451
REMARK  184  A    between atoms: _451  and  _452
REMARK  185  A    between atoms: _451  and  _454
REMARK  186  A    between atoms: _454  and  _455
REMARK  187  A    between atoms: _458  and  _460
REMARK  188  A    between atoms: _460  and  _461
REMARK  189  A    between atoms: _460  and  _463
REMARK  190  A    between atoms: _463  and  _464
REMARK  191  A    between atoms: _468  and  _469
REMARK  192  A    between atoms: _474  and  _476
REMARK  193  A    between atoms: _476  and  _477
REMARK  194  A    between atoms: _476  and  _479
REMARK  195  A    between atoms: _482  and  _484
REMARK  196  A    between atoms: _484  and  _485
REMARK  197  A    between atoms: _484  and  _487
REMARK  198  A    between atoms: _487  and  _488
REMARK  199  A    between atoms: _493  and  _495
REMARK  200  A    between atoms: _495  and  _496
REMARK  201  A    between atoms: _495  and  _498
REMARK  202  A    between atoms: _498  and  _499
REMARK  203  A    between atoms: _502  and  _504
REMARK  204  A    between atoms: _504  and  _505
REMARK  205  A    between atoms: _504  and  _507
REMARK  206  A    between atoms: _507  and  _508
REMARK  207  A    between atoms: _511  and  _513
REMARK  208  A    between atoms: _513  and  _514
REMARK  209  A    between atoms: _516  and  _518
REMARK  210  A    between atoms: _518  and  _519
REMARK  211  A    between atoms: _518  and  _521
REMARK  212  A    between atoms: _521  and  _522
REMARK  213  A    between atoms: _522  and  _523
REMARK  214  A    between atoms: _523  and  _524
REMARK  215  A    between atoms: _533  and  _535
REMARK  216  A    between atoms: _535  and  _536
REMARK  217  A    between atoms: _535  and  _538
REMARK  218  A    between atoms: _538  and  _539
REMARK                            x       y       z     vdW  Elec       q    Type
REMARK                         _______ _______ _______ _____ _____    ______ ____
ROOT
ATOM      1  CA  LEU A   1       7.065  35.477  16.623  0.00  0.00    +0.133 C 
ENDROOT
BRANCH   1   2
ATOM      2  N   LEU A   1       6.824  34.678  17.806  0.00  0.00    -0.239 NA
ATOM      3  H   LEU A   1       7.527  33.958  18.068  0.00  0.00    +0.142 HD
ENDBRANCH   1   2
BRANCH   1   4
ATOM      4  C   LEU A   1       6.721  34.601  15.432  0.00  0.00    +0.224 C 
ATOM      5  O   LEU A   1       7.213  33.482  15.318  0.00  0.00    -0.287 OA
ENDBRANCH   1   4
BRANCH   1   6
ATOM      6  CB  LEU A   1       8.527  35.917  16.576  0.00  0.00    +0.025 C 
BRANCH   6   7
ATOM      7  CG  LEU A   1       9.028  36.632  17.840  0.00  0.00    +0.002 C 
ATOM      8  CD2 LEU A   1       8.175  37.850  18.153  0.00  0.00    +0.000 C 
ATOM      9  CD1 LEU A   1      10.487  37.027  17.697  0.00  0.00    +0.000 C 
ENDBRANCH   6   7
ENDBRANCH   1   6
TORSDOF 4
REMARK  Name = ../refined-set-2016/2qhy/2qhy_pocket.pdb
REMARK  218 active torsions:
REMARK  status: ('A' for Active; 'I' for Inactive)
REMARK    1  A    between atoms: _1  and  _3
REMARK    2  A    between atoms: _3  and  _4
REMARK    3  A    between atoms: _3  and  _6
REMARK    4  A    between atoms: _6  and  _7
REMARK    5  A    between atoms: _7  and  _8
REMARK    6  A    between atoms: _8  and  _9
REMARK    7  A    between atoms: _18  and  _20
REMARK    8  A    between atoms: _20  and  _21
REMARK    9  A    between atoms: _20  and  _23
REMARK   10  A    between atoms: _23  and  _24
REMARK   11  A    between atoms: _27  and  _29
REMARK   12  A    between atoms: _29  and  _30
REMARK   13  A    between atoms: _29  and  _32
REMARK   14  A    between atoms: _32  and  _33
REMARK   15  A    between atoms: _36  and  _38
REMARK   16  A    between atoms: _38  and  _39
REMARK   17  A    between atoms: _38  and  _41
REMARK   18  A    between atoms: _41  and  _42
REMARK   19  A    between atoms: _45  and  _47
REMARK   20  A    between atoms: _47  and  _48
REMARK   21  A    between atoms: _47  and  _50
REMARK   22  A    between atoms: _50  and  _51
REMARK   23  A    between atoms: _54  and  _56
REMARK   24  A    between atoms: _56  and  _57
REMARK   25  A    between atoms: _59  and  _61
REMARK   26  A    between atoms: _61  and  _62
REMARK   27  A    between atoms: _65  and  _67
REMARK   28  A    between atoms: _67  and  _68
REMARK   29  A    between atoms: _67  and  _70
REMARK   30  A    between atoms: _70  and  _71
REMARK   31  A    between atoms: _74  and  _76
REMARK   32  A    between atoms: _76  and  _77
REMARK   33  A    between atoms: _76  and  _79
REMARK   34  A    between atoms: _79  and  _80
REMARK   35  A    between atoms: _83  and  _85
REMARK   36  A    between atoms: _85  and  _86
REMARK   37  A    between atoms: _85  and  _88
REMARK   38  A    between atoms: _88  and  _89
REMARK   39  A    between atoms: _92  and  _94
REMARK   40  A    between atoms: _94  and  _95
REMARK   41  A    between atoms: _94  and  _97
REMARK   42  A    between atoms: _100  and  _102
REMARK   43  A    between atoms: _102  and  _103
REMARK   44  A    between atoms: _102  and  _105
REMARK   45  A    between atoms: _105  and  _106
REMARK   46  A    between atoms: _109  and  _111
REMARK   47  A    between atoms: _111  and  _112
REMARK   48  A    between atoms: _114  and  _116
REMARK   49  A    between atoms: _116  and  _117
REMARK   50  A    between atoms: _119  and  _121
REMARK   51  A    between atoms: _121  and  _122
REMARK   52  A    between atoms: _121  and  _124
REMARK   53  A    between atoms: _124  and  _125
REMARK   54  A    between atoms: _128  and  _130
REMARK   55  A    between atoms: _130  and  _131
REMARK   56  A    between atoms: _133  and  _135
REMARK   57  A    between atoms: _135  and  _136
REMARK   58  A    between atoms: _138  and  _140
REMARK   59  A    between atoms: _140  and  _141
REMARK   60  A    between atoms: _140  and  _143
REMARK   61  A    between atoms: _143  and  _144
REMARK   62  A    between atoms: _150  and  _152
REMARK   63  A    between atoms: _152  and  _153
REMARK   64  A    between atoms: _152  and  _155
REMARK   65  A    between atoms: _155  and  _156
REMARK   66  A    between atoms: _159  and  _161
REMARK   67  A    between atoms: _161  and  _162
REMARK   68  A    between atoms: _161  and  _164
REMARK   69  A    between atoms: _164  and  _165
REMARK   70  A    between atoms: _169  and  _170
REMARK   71  A    between atoms: _175  and  _177
REMARK   72  A    between atoms: _177  and  _178
REMARK   73  A    between atoms: _177  and  _180
REMARK   74  A    between atoms: _180  and  _181
REMARK   75  A    between atoms: _185  and  _186
REMARK   76  A    between atoms: _191  and  _193
REMARK   77  A    between atoms: _193  and  _194
REMARK   78  A    between atoms: _193  and  _196
REMARK   79  A    between atoms: _199  and  _201
REMARK   80  A    between atoms: _201  and  _202
REMARK   81  A    between atoms: _201  and  _204
REMARK   82  A    between atoms: _204  and  _205
REMARK   83  A    between atoms: _210  and  _212
REMARK   84  A    between atoms: _212  and  _213
REMARK   85  A    between atoms: _212  and  _215
REMARK   86  A    between atoms: _215  and  _216
REMARK   87  A    between atoms: _219  and  _221
REMARK   88  A    between atoms: _221  and  _222
REMARK   89  A    between atoms: _221  and  _224
REMARK   90  A    between atoms: _224  and  _225
REMARK   91  A    between atoms: _228  and  _230
REMARK   92  A    between atoms: _230  and  _231
REMARK   93  A    between atoms: _233  and  _235
REMARK   94  A    between atoms: _235  and  _236
REMARK   95  A    between atoms: _235  and  _238
REMARK   96  A    between atoms: _238  and  _239
REMARK   97  A    between atoms: _239  and  _240
REMARK   98  A    between atoms: _240  and  _241
REMARK   99  A    between atoms: _250  and  _252
REMARK  100  A    between atoms: _252  and  _253
REMARK  101  A    between atoms: _252  and  _255
REMARK  102  A    between atoms: _255  and  _256
REMARK  103  A    between atoms: _261  and  _263
REMARK  104  A    between atoms: _263  and  _264
REMARK  105  A    between atoms: _263  and  _266
REMARK  106  A    between atoms: _266  and  _267
REMARK  107  A    between atoms: _267  and  _268
REMARK  108  A    between atoms: _268  and  _269
REMARK  109  A    between atoms: _278  and  _280
REMARK  110  A    between atoms: _280  and  _281
REMARK  111  A    between atoms: _280  and  _283
REMARK  112  A    between atoms: _283  and  _284
REMARK  113  A    between atoms: _287  and  _289
REMARK  114  A    between atoms: _289  and  _290
REMARK  115  A    between atoms: _289  and  _292
REMARK  116  A    between atoms: _292  and  _293
REMARK  117  A    between atoms: _296  and  _298
REMARK  118  A    between atoms: _298  and  _299
REMARK  119  A    between atoms: _298  and  _301
REMARK  120  A    between atoms: _301  and  _302
REMARK  121  A    between atoms: _305  and  _307
REMARK  122  A    between atoms: _307  and  _308
REMARK  123  A    between atoms: _307  and  _310
REMARK  124  A    between atoms: _310  and  _311
REMARK  125  A    between atoms: _314  and  _316
REMARK  126  A    between atoms: _316  and  _317
REMARK  127  A    between atoms: _319  and  _321
REMARK  128  A    between atoms: _321  and  _322
REMARK  129  A    between atoms: _325  and  _327
REMARK  130  A    between atoms: _327  and  _328
REMARK  131  A    between atoms: _327  and  _330
REMARK  132  A    between atoms: _330  and  _331
REMARK  133  A    between atoms: _334  and  _336
REMARK  134  A    between atoms: _336  and  _337
REMARK  135  A    between atoms: _336  and  _339
REMARK  136  A    between atoms: _339  and  _340
REMARK  137  A    between atoms: _343  and  _345
REMARK  138  A    between atoms: _345  and  _346
REMARK  139  A    between atoms: _345  and  _348
REMARK  140  A    between atoms: _348  and  _349
REMARK  141  A    between atoms: _352  and  _354
REMARK  142  A    between atoms: _354  and  _355
REMARK  143  A    between atoms: _354  and  _357
REMARK  144  A    between atoms: _360  and  _362
REMARK  145  A    between atoms: _362  and  _363
REMARK  146  A    between atoms: _362  and  _365
REMARK  147  A    between atoms: _365  and  _366
REMARK  148  A    between atoms: _366  and  _367
REMARK  149  A    between atoms: _367  and  _368
REMARK  150  A    between atoms: _368  and  _369
REMARK  151  A    between atoms: _373  and  _375
REMARK  152  A    between atoms: _375  and  _376
REMARK  153  A    between atoms: _375  and  _378
REMARK  154  A    between atoms: _378  and  _379
REMARK  155  A    between atoms: _379  and  _380
REMARK  156  A    between atoms: _382  and  _384
REMARK  157  A    between atoms: _384  and  _385
REMARK  158  A    between atoms: _384  and  _387
REMARK  159  A    between atoms: _387  and  _388
REMARK  160  A    between atoms: _391  and  _393
REMARK  161  A    between atoms: _393  and  _394
REMARK  162  A    between atoms: _396  and  _398
REMARK  163  A    between atoms: _398  and  _399
REMARK  164  A    between atoms: _401  and  _403
REMARK  165  A    between atoms: _403  and  _404
REMARK  166  A    between atoms: _403  and  _406
REMARK  167  A    between atoms: _406  and  _407
REMARK  168  A    between atoms: _410  and  _412
REMARK  169  A    between atoms: _412  and  _413
REMARK  170  A    between atoms: _415  and  _417
REMARK  171  A    between atoms: _417  and  _418
REMARK  172  A    between atoms: _420  and  _422
REMARK  173  A    between atoms: _422  and  _423
REMARK  174  A    between atoms: _422  and  _425
REMARK  175  A    between atoms: _425  and  _426
REMARK  176  A    between atoms: _432  and  _434
REMARK  177  A    between atoms: _434  and  _435
REMARK  178  A    between atoms: _434  and  _437
REMARK  179  A    between atoms: _437  and  _438
REMARK  180  A    between atoms: _441  and  _443
REMARK  181  A    between atoms: _443  and  _444
REMARK  182  A    between atoms: _443  and  _446
REMARK  183  A    between atoms: _449  and  _451
REMARK  184  A    between atoms: _451  and  _452
REMARK  185  A    between atoms: _451  and  _454
REMARK  186  A    between atoms: _454  and  _455
REMARK  187  A    between atoms: _458  and  _460
REMARK  188  A    between atoms: _460  and  _461
REMARK  189  A    between atoms: _460  and  _463
REMARK  190  A    between atoms: _463  and  _464
REMARK  191  A    between atoms: _468  and  _469
REMARK  192  A    between atoms: _474  and  _476
REMARK  193  A    between atoms: _476  and  _477
REMARK  194  A    between atoms: _476  and  _479
REMARK  195  A    between atoms: _482  and  _484
REMARK  196  A    between atoms: _484  and  _485
REMARK  197  A    between atoms: _484  and  _487
REMARK  198  A    between atoms: _487  and  _488
REMARK  199  A    between atoms: _493  and  _495
REMARK  200  A    between atoms: _495  and  _496
REMARK  201  A    between atoms: _495  and  _498
REMARK  202  A    between atoms: _498  and  _499
REMARK  203  A    between atoms: _502  and  _504
REMARK  204  A    between atoms: _504  and  _505
REMARK  205  A    between atoms: _504  and  _507
REMARK  206  A    between atoms: _507  and  _508
REMARK  207  A    between atoms: _511  and  _513
REMARK  208  A    between atoms: _513  and  _514
REMARK  209  A    between atoms: _516  and  _518
REMARK  210  A    between atoms: _518  and  _519
REMARK  211  A    between atoms: _518  and  _521
REMARK  212  A    between atoms: _521  and  _522
REMARK  213  A    between atoms: _522  and  _523
REMARK  214  A    between atoms: _523  and  _524
REMARK  215  A    between atoms: _533  and  _535
REMARK  216  A    between atoms: _535  and  _536
REMARK  217  A    between atoms: _535  and  _538
REMARK  218  A    between atoms: _538  and  _539
REMARK                            x       y       z     vdW  Elec       q    Type
REMARK                         _______ _______ _______ _____ _____    ______ ____
ROOT
ATOM      1  C   ILE A   5      11.683  27.814  18.172  0.00  0.00    +0.241 C 
ATOM      2  N   ILE A   6      11.950  26.948  19.152  0.00  0.00    -0.297 N 
ATOM      3  H   ILE A   6      12.432  26.056  18.921  0.00  0.00    +0.150 HD
ATOM      4  O   ILE A   5      10.955  28.806  18.324  0.00  0.00    -0.273 OA
ENDROOT
BRANCH   2   5
ATOM      5  CA  ILE A   6      11.584  27.218  20.537  0.00  0.00    +0.149 C 
BRANCH   5   6
ATOM      6  C   ILE A   6      12.763  27.856  21.262  0.00  0.00    +0.241 C 
ATOM      7  N   GLY A   7      12.591  29.133  21.595  0.00  0.00    -0.295 N 
ATOM      8  H   GLY A   7      11.667  29.573  21.412  0.00  0.00    +0.150 HD
ATOM      9  O   ILE A   6      13.798  27.202  21.521  0.00  0.00    -0.273 OA
BRANCH   7  10
ATOM     10  CA  GLY A   7      13.630  29.936  22.199  0.00  0.00    +0.176 C 
BRANCH  10  11
ATOM     11  C   GLY A   7      13.580  29.939  23.706  0.00  0.00    +0.243 C 
ATOM     12  O   GLY A   7      12.700  29.323  24.317  0.00  0.00    -0.273 OA
ATOM     13  N   ARG A   8      14.528  30.657  24.302  0.00  0.00    -0.297 N 
ATOM     14  H   ARG A   8      15.152  31.253  23.721  0.00  0.00    +0.150 HD
BRANCH  13  15
ATOM     15  CA  ARG A   8      14.716  30.631  25.744  0.00  0.00    +0.149 C 
BRANCH  15  16
ATOM     16  C   ARG A   8      13.512  31.128  26.522  0.00  0.00    +0.241 C 
ATOM     17  O   ARG A   8      13.288  30.691  27.644  0.00  0.00    -0.273 OA
ATOM     18  N   ASN A   9      12.725  32.023  25.934  0.00  0.00    -0.298 N 
ATOM     19  H   ASN A   9      12.950  32.363  24.977  0.00  0.00    +0.150 HD
BRANCH  18  20
ATOM     20  CA  ASN A   9      11.544  32.530  26.630  0.00  0.00    +0.146 C 
BRANCH  20  21
ATOM     21  C   ASN A   9      10.580  31.405  27.027  0.00  0.00    +0.227 C 
ATOM     22  O   ASN A   9       9.898  31.512  28.041  0.00  0.00    -0.286 OA
ENDBRANCH  20  21
BRANCH  20  23
ATOM     23  CB  ASN A   9      10.819  33.593  25.802  0.00  0.00    +0.112 C 
BRANCH  23  24
ATOM     24  CG  ASN A   9      10.124  33.015  24.589  0.00  0.00    +0.222 C 
ATOM     25  ND2 ASN A   9       8.835  33.354  24.412  0.00  0.00    -0.329 N 
ATOM     26 HD21 ASN A   9       8.362  33.976  25.098  0.00  0.00    +0.145 HD
ATOM     27 HD22 ASN A   9       8.311  32.994  23.589  0.00  0.00    +0.145 HD
ATOM     28  OD1 ASN A   9      10.738  32.280  23.807  0.00  0.00    -0.275 OA
ENDBRANCH  23  24
ENDBRANCH  20  23
ENDBRANCH  18  20
ENDBRANCH  15  16
BRANCH  15  29
ATOM     29  CB  ARG A   8      15.963  31.420  26.150  0.00  0.00    +0.033 C 
BRANCH  29  30
ATOM     30  CG  ARG A   8      17.262  30.714  25.749  0.00  0.00    +0.045 C 
BRANCH  30  31
ATOM     31  CD  ARG A   8      18.496  31.438  26.280  0.00  0.00    +0.174 C 
BRANCH  31  32
ATOM     32  NE  ARG A   8      18.563  32.834  25.846  0.00  0.00    -0.265 N 
ATOM     33  CZ  ARG A   8      18.209  33.893  26.576  0.00  0.00    +0.342 C 
ATOM     34  NH2 ARG A   8      17.743  33.775  27.814  0.00  0.00    -0.292 N 
ATOM     35 HH21 ARG A   8      17.477  34.624  28.353  0.00  0.00    +0.255 HD
ATOM     36 HH22 ARG A   8      17.644  32.834  28.245  0.00  0.00    +0.255 HD
ATOM     37  NH1 ARG A   8      18.320  35.102  26.049  0.00  0.00    -0.292 N 
ATOM     38 HH11 ARG A   8      18.048  35.938  26.604  0.00  0.00    +0.255 HD
ATOM     39 HH12 ARG A   8      18.679  35.216  25.079  0.00  0.00    +0.255 HD
ATOM     40  HE  ARG A   8      18.917  33.016  24.885  0.00  0.00    +0.259 HD
ENDBRANCH  31  32
ENDBRANCH  30  31
ENDBRANCH  29  30
ENDBRANCH  15  29
ENDBRANCH  13  15
ENDBRANCH  10  11
ENDBRANCH   7  10
ENDBRANCH   5   6
BRANCH   5  41
ATOM     41  CB  ILE A   6      11.160  25.948  21.297  0.00  0.00    +0.027 C 
ATOM     42  CG2 ILE A   6      10.743  26.313  22.726  0.00  0.00    +0.002 C 
BRANCH  41  43
ATOM     43  CG1 ILE A   6      10.040  25.215  20.541  0.00  0.00    +0.002 C 
ATOM     44  CD1 ILE A   6       8.802  26.057  20.248  0.00  0.00    +0.000 C 
ENDBRANCH  41  43
ENDBRANCH   5  41
ENDBRANCH   2   5
BRANCH   1  45
ATOM     45  CA  ILE A   5      12.315  27.528  16.808  0.00  0.00    +0.149 C 
BRANCH  45  47
ATOM     46  C   ASN A   4      11.143  26.238  15.078  0.00  0.00    +0.241 C 
ATOM     47  N   ILE A   5      11.278  27.338  15.812  0.00  0.00    -0.297 N 
ATOM     48  H   ILE A   5      10.598  28.110  15.663  0.00  0.00    +0.150 HD
ATOM     49  O   ASN A   4      11.814  25.220  15.247  0.00  0.00    -0.273 OA
BRANCH  46  50
ATOM     50  CA  ASN A   4      10.093  26.300  13.969  0.00  0.00    +0.158 C 
BRANCH  50  52
ATOM     51  C   VAL A   3      11.580  26.649  12.070  0.00  0.00    +0.241 C 
ATOM     52  N   ASN A   4      10.721  25.863  12.716  0.00  0.00    -0.297 N 
ATOM     53  H   ASN A   4      10.492  24.926  12.327  0.00  0.00    +0.150 HD
ATOM     54  O   VAL A   3      11.792  27.817  12.398  0.00  0.00    -0.273 OA
BRANCH  51  55
ATOM     55  CA  VAL A   3      12.300  26.037  10.875  0.00  0.00    +0.149 C 
BRANCH  55  57
ATOM     56  C   PRO A   2      12.446  26.787   8.553  0.00  0.00    +0.241 C 
ATOM     57  N   VAL A   3      12.525  27.058   9.852  0.00  0.00    -0.297 N 
ATOM     58  H   VAL A   3      12.754  28.027  10.151  0.00  0.00    +0.150 HD
ATOM     59  O   PRO A   2      12.192  25.665   8.110  0.00  0.00    -0.273 OA
BRANCH  56  66
ATOM     60  C   THR A   1      11.476  29.793   8.488  0.00  0.00    +0.244 C 
ATOM     61  O   THR A   1      10.434  29.201   8.221  0.00  0.00    -0.273 OA
ATOM     62  N   PRO A   2      12.675  29.282   8.177  0.00  0.00    -0.272 N 
ATOM     63  CD  PRO A   2      14.026  29.853   8.319  0.00  0.00    +0.094 C 
ATOM     64  CG  PRO A   2      14.932  28.699   7.963  0.00  0.00    +0.024 C 
ATOM     65  CB  PRO A   2      14.146  27.845   7.051  0.00  0.00    +0.031 C 
ATOM     66  CA  PRO A   2      12.714  27.942   7.584  0.00  0.00    +0.152 C 
BRANCH  60  67
ATOM     67  CA  THR A   1      11.439  31.162   9.196  0.00  0.00    +0.172 C 
BRANCH  67  68
ATOM     68  N   THR A   1      10.281  31.919   8.745  0.00  0.00    -0.236 NA
ATOM     69  H   THR A   1       9.432  31.948   9.345  0.00  0.00    +0.142 HD
ENDBRANCH  67  68
BRANCH  67  70
ATOM     70  CB  THR A   1      11.433  30.979  10.739  0.00  0.00    +0.135 C 
ATOM     71  CG2 THR A   1      10.148  30.281  11.226  0.00  0.00    +0.034 C 
BRANCH  70  72
ATOM     72  OG1 THR A   1      12.574  30.205  11.135  0.00  0.00    -0.383 OA
ATOM     73  HG1 THR A   1      12.537  29.318  10.697  0.00  0.00    +0.210 HD
ENDBRANCH  70  72
ENDBRANCH  67  70
ENDBRANCH  60  67
ENDBRANCH  56  66
ENDBRANCH  55  57
BRANCH  55  74
ATOM     74  CB  VAL A   3      13.633  25.407  11.350  0.00  0.00    +0.027 C 
ATOM     75  CG2 VAL A   3      14.616  26.482  11.839  0.00  0.00    +0.002 C 
ATOM     76  CG1 VAL A   3      14.254  24.578  10.242  0.00  0.00    +0.002 C 
ENDBRANCH  55  74
ENDBRANCH  51  55
ENDBRANCH  50  52
BRANCH  50  77
ATOM     77  CB  ASN A   4       8.909  25.426  14.353  0.00  0.00    +0.114 C 
BRANCH  77  78
ATOM     78  CG  ASN A   4       7.768  25.522  13.370  0.00  0.00    +0.222 C 
ATOM     79  OD1 ASN A   4       7.276  26.613  13.079  0.00  0.00    -0.275 OA
ATOM     80  ND2 ASN A   4       7.320  24.374  12.870  0.00  0.00    -0.329 N 
ATOM     81 HD21 ASN A   4       7.768  23.477  13.146  0.00  0.00    +0.145 HD
ATOM     82 HD22 ASN A   4       6.522  24.373  12.203  0.00  0.00    +0.145 HD
ENDBRANCH  77  78
ENDBRANCH  50  77
ENDBRANCH  46  50
ENDBRANCH  45  47
BRANCH  45  83
ATOM     83  CB  ILE A   5      13.210  28.742  16.439  0.00  0.00    +0.027 C 
ATOM     84  CG2 ILE A   5      14.167  29.093  17.605  0.00  0.00    +0.002 C 
BRANCH  83  85
ATOM     85  CG1 ILE A   5      14.005  28.439  15.164  0.00  0.00    +0.002 C 
ATOM     86  CD1 ILE A   5      14.610  29.644  14.525  0.00  0.00    +0.000 C 
ENDBRANCH  83  85
ENDBRANCH  45  83
ENDBRANCH   1  45
TORSDOF 32
REMARK  Name = ../refined-set-2016/2qhy/2qhy_pocket.pdb
REMARK  218 active torsions:
REMARK  status: ('A' for Active; 'I' for Inactive)
REMARK    1  A    between atoms: _1  and  _3
REMARK    2  A    between atoms: _3  and  _4
REMARK    3  A    between atoms: _3  and  _6
REMARK    4  A    between atoms: _6  and  _7
REMARK    5  A    between atoms: _7  and  _8
REMARK    6  A    between atoms: _8  and  _9
REMARK    7  A    between atoms: _18  and  _20
REMARK    8  A    between atoms: _20  and  _21
REMARK    9  A    between atoms: _20  and  _23
REMARK   10  A    between atoms: _23  and  _24
REMARK   11  A    between atoms: _27  and  _29
REMARK   12  A    between atoms: _29  and  _30
REMARK   13  A    between atoms: _29  and  _32
REMARK   14  A    between atoms: _32  and  _33
REMARK   15  A    between atoms: _36  and  _38
REMARK   16  A    between atoms: _38  and  _39
REMARK   17  A    between atoms: _38  and  _41
REMARK   18  A    between atoms: _41  and  _42
REMARK   19  A    between atoms: _45  and  _47
REMARK   20  A    between atoms: _47  and  _48
REMARK   21  A    between atoms: _47  and  _50
REMARK   22  A    between atoms: _50  and  _51
REMARK   23  A    between atoms: _54  and  _56
REMARK   24  A    between atoms: _56  and  _57
REMARK   25  A    between atoms: _59  and  _61
REMARK   26  A    between atoms: _61  and  _62
REMARK   27  A    between atoms: _65  and  _67
REMARK   28  A    between atoms: _67  and  _68
REMARK   29  A    between atoms: _67  and  _70
REMARK   30  A    between atoms: _70  and  _71
REMARK   31  A    between atoms: _74  and  _76
REMARK   32  A    between atoms: _76  and  _77
REMARK   33  A    between atoms: _76  and  _79
REMARK   34  A    between atoms: _79  and  _80
REMARK   35  A    between atoms: _83  and  _85
REMARK   36  A    between atoms: _85  and  _86
REMARK   37  A    between atoms: _85  and  _88
REMARK   38  A    between atoms: _88  and  _89
REMARK   39  A    between atoms: _92  and  _94
REMARK   40  A    between atoms: _94  and  _95
REMARK   41  A    between atoms: _94  and  _97
REMARK   42  A    between atoms: _100  and  _102
REMARK   43  A    between atoms: _102  and  _103
REMARK   44  A    between atoms: _102  and  _105
REMARK   45  A    between atoms: _105  and  _106
REMARK   46  A    between atoms: _109  and  _111
REMARK   47  A    between atoms: _111  and  _112
REMARK   48  A    between atoms: _114  and  _116
REMARK   49  A    between atoms: _116  and  _117
REMARK   50  A    between atoms: _119  and  _121
REMARK   51  A    between atoms: _121  and  _122
REMARK   52  A    between atoms: _121  and  _124
REMARK   53  A    between atoms: _124  and  _125
REMARK   54  A    between atoms: _128  and  _130
REMARK   55  A    between atoms: _130  and  _131
REMARK   56  A    between atoms: _133  and  _135
REMARK   57  A    between atoms: _135  and  _136
REMARK   58  A    between atoms: _138  and  _140
REMARK   59  A    between atoms: _140  and  _141
REMARK   60  A    between atoms: _140  and  _143
REMARK   61  A    between atoms: _143  and  _144
REMARK   62  A    between atoms: _150  and  _152
REMARK   63  A    between atoms: _152  and  _153
REMARK   64  A    between atoms: _152  and  _155
REMARK   65  A    between atoms: _155  and  _156
REMARK   66  A    between atoms: _159  and  _161
REMARK   67  A    between atoms: _161  and  _162
REMARK   68  A    between atoms: _161  and  _164
REMARK   69  A    between atoms: _164  and  _165
REMARK   70  A    between atoms: _169  and  _170
REMARK   71  A    between atoms: _175  and  _177
REMARK   72  A    between atoms: _177  and  _178
REMARK   73  A    between atoms: _177  and  _180
REMARK   74  A    between atoms: _180  and  _181
REMARK   75  A    between atoms: _185  and  _186
REMARK   76  A    between atoms: _191  and  _193
REMARK   77  A    between atoms: _193  and  _194
REMARK   78  A    between atoms: _193  and  _196
REMARK   79  A    between atoms: _199  and  _201
REMARK   80  A    between atoms: _201  and  _202
REMARK   81  A    between atoms: _201  and  _204
REMARK   82  A    between atoms: _204  and  _205
REMARK   83  A    between atoms: _210  and  _212
REMARK   84  A    between atoms: _212  and  _213
REMARK   85  A    between atoms: _212  and  _215
REMARK   86  A    between atoms: _215  and  _216
REMARK   87  A    between atoms: _219  and  _221
REMARK   88  A    between atoms: _221  and  _222
REMARK   89  A    between atoms: _221  and  _224
REMARK   90  A    between atoms: _224  and  _225
REMARK   91  A    between atoms: _228  and  _230
REMARK   92  A    between atoms: _230  and  _231
REMARK   93  A    between atoms: _233  and  _235
REMARK   94  A    between atoms: _235  and  _236
REMARK   95  A    between atoms: _235  and  _238
REMARK   96  A    between atoms: _238  and  _239
REMARK   97  A    between atoms: _239  and  _240
REMARK   98  A    between atoms: _240  and  _241
REMARK   99  A    between atoms: _250  and  _252
REMARK  100  A    between atoms: _252  and  _253
REMARK  101  A    between atoms: _252  and  _255
REMARK  102  A    between atoms: _255  and  _256
REMARK  103  A    between atoms: _261  and  _263
REMARK  104  A    between atoms: _263  and  _264
REMARK  105  A    between atoms: _263  and  _266
REMARK  106  A    between atoms: _266  and  _267
REMARK  107  A    between atoms: _267  and  _268
REMARK  108  A    between atoms: _268  and  _269
REMARK  109  A    between atoms: _278  and  _280
REMARK  110  A    between atoms: _280  and  _281
REMARK  111  A    between atoms: _280  and  _283
REMARK  112  A    between atoms: _283  and  _284
REMARK  113  A    between atoms: _287  and  _289
REMARK  114  A    between atoms: _289  and  _290
REMARK  115  A    between atoms: _289  and  _292
REMARK  116  A    between atoms: _292  and  _293
REMARK  117  A    between atoms: _296  and  _298
REMARK  118  A    between atoms: _298  and  _299
REMARK  119  A    between atoms: _298  and  _301
REMARK  120  A    between atoms: _301  and  _302
REMARK  121  A    between atoms: _305  and  _307
REMARK  122  A    between atoms: _307  and  _308
REMARK  123  A    between atoms: _307  and  _310
REMARK  124  A    between atoms: _310  and  _311
REMARK  125  A    between atoms: _314  and  _316
REMARK  126  A    between atoms: _316  and  _317
REMARK  127  A    between atoms: _319  and  _321
REMARK  128  A    between atoms: _321  and  _322
REMARK  129  A    between atoms: _325  and  _327
REMARK  130  A    between atoms: _327  and  _328
REMARK  131  A    between atoms: _327  and  _330
REMARK  132  A    between atoms: _330  and  _331
REMARK  133  A    between atoms: _334  and  _336
REMARK  134  A    between atoms: _336  and  _337
REMARK  135  A    between atoms: _336  and  _339
REMARK  136  A    between atoms: _339  and  _340
REMARK  137  A    between atoms: _343  and  _345
REMARK  138  A    between atoms: _345  and  _346
REMARK  139  A    between atoms: _345  and  _348
REMARK  140  A    between atoms: _348  and  _349
REMARK  141  A    between atoms: _352  and  _354
REMARK  142  A    between atoms: _354  and  _355
REMARK  143  A    between atoms: _354  and  _357
REMARK  144  A    between atoms: _360  and  _362
REMARK  145  A    between atoms: _362  and  _363
REMARK  146  A    between atoms: _362  and  _365
REMARK  147  A    between atoms: _365  and  _366
REMARK  148  A    between atoms: _366  and  _367
REMARK  149  A    between atoms: _367  and  _368
REMARK  150  A    between atoms: _368  and  _369
REMARK  151  A    between atoms: _373  and  _375
REMARK  152  A    between atoms: _375  and  _376
REMARK  153  A    between atoms: _375  and  _378
REMARK  154  A    between atoms: _378  and  _379
REMARK  155  A    between atoms: _379  and  _380
REMARK  156  A    between atoms: _382  and  _384
REMARK  157  A    between atoms: _384  and  _385
REMARK  158  A    between atoms: _384  and  _387
REMARK  159  A    between atoms: _387  and  _388
REMARK  160  A    between atoms: _391  and  _393
REMARK  161  A    between atoms: _393  and  _394
REMARK  162  A    between atoms: _396  and  _398
REMARK  163  A    between atoms: _398  and  _399
REMARK  164  A    between atoms: _401  and  _403
REMARK  165  A    between atoms: _403  and  _404
REMARK  166  A    between atoms: _403  and  _406
REMARK  167  A    between atoms: _406  and  _407
REMARK  168  A    between atoms: _410  and  _412
REMARK  169  A    between atoms: _412  and  _413
REMARK  170  A    between atoms: _415  and  _417
REMARK  171  A    between atoms: _417  and  _418
REMARK  172  A    between atoms: _420  and  _422
REMARK  173  A    between atoms: _422  and  _423
REMARK  174  A    between atoms: _422  and  _425
REMARK  175  A    between atoms: _425  and  _426
REMARK  176  A    between atoms: _432  and  _434
REMARK  177  A    between atoms: _434  and  _435
REMARK  178  A    between atoms: _434  and  _437
REMARK  179  A    between atoms: _437  and  _438
REMARK  180  A    between atoms: _441  and  _443
REMARK  181  A    between atoms: _443  and  _444
REMARK  182  A    between atoms: _443  and  _446
REMARK  183  A    between atoms: _449  and  _451
REMARK  184  A    between atoms: _451  and  _452
REMARK  185  A    between atoms: _451  and  _454
REMARK  186  A    between atoms: _454  and  _455
REMARK  187  A    between atoms: _458  and  _460
REMARK  188  A    between atoms: _460  and  _461
REMARK  189  A    between atoms: _460  and  _463
REMARK  190  A    between atoms: _463  and  _464
REMARK  191  A    between atoms: _468  and  _469
REMARK  192  A    between atoms: _474  and  _476
REMARK  193  A    between atoms: _476  and  _477
REMARK  194  A    between atoms: _476  and  _479
REMARK  195  A    between atoms: _482  and  _484
REMARK  196  A    between atoms: _484  and  _485
REMARK  197  A    between atoms: _484  and  _487
REMARK  198  A    between atoms: _487  and  _488
REMARK  199  A    between atoms: _493  and  _495
REMARK  200  A    between atoms: _495  and  _496
REMARK  201  A    between atoms: _495  and  _498
REMARK  202  A    between atoms: _498  and  _499
REMARK  203  A    between atoms: _502  and  _504
REMARK  204  A    between atoms: _504  and  _505
REMARK  205  A    between atoms: _504  and  _507
REMARK  206  A    between atoms: _507  and  _508
REMARK  207  A    between atoms: _511  and  _513
REMARK  208  A    between atoms: _513  and  _514
REMARK  209  A    between atoms: _516  and  _518
REMARK  210  A    between atoms: _518  and  _519
REMARK  211  A    between atoms: _518  and  _521
REMARK  212  A    between atoms: _521  and  _522
REMARK  213  A    between atoms: _522  and  _523
REMARK  214  A    between atoms: _523  and  _524
REMARK  215  A    between atoms: _533  and  _535
REMARK  216  A    between atoms: _535  and  _536
REMARK  217  A    between atoms: _535  and  _538
REMARK  218  A    between atoms: _538  and  _539
REMARK                            x       y       z     vdW  Elec       q    Type
REMARK                         _______ _______ _______ _____ _____    ______ ____
ROOT
ATOM      1  O   HOH     1      20.274  21.902  15.582  0.00  0.00    +0.000 OA
ENDROOT
TORSDOF 0
REMARK  Name = ../refined-set-2016/2qhy/2qhy_pocket.pdb
REMARK  218 active torsions:
REMARK  status: ('A' for Active; 'I' for Inactive)
REMARK    1  A    between atoms: _1  and  _3
REMARK    2  A    between atoms: _3  and  _4
REMARK    3  A    between atoms: _3  and  _6
REMARK    4  A    between atoms: _6  and  _7
REMARK    5  A    between atoms: _7  and  _8
REMARK    6  A    between atoms: _8  and  _9
REMARK    7  A    between atoms: _18  and  _20
REMARK    8  A    between atoms: _20  and  _21
REMARK    9  A    between atoms: _20  and  _23
REMARK   10  A    between atoms: _23  and  _24
REMARK   11  A    between atoms: _27  and  _29
REMARK   12  A    between atoms: _29  and  _30
REMARK   13  A    between atoms: _29  and  _32
REMARK   14  A    between atoms: _32  and  _33
REMARK   15  A    between atoms: _36  and  _38
REMARK   16  A    between atoms: _38  and  _39
REMARK   17  A    between atoms: _38  and  _41
REMARK   18  A    between atoms: _41  and  _42
REMARK   19  A    between atoms: _45  and  _47
REMARK   20  A    between atoms: _47  and  _48
REMARK   21  A    between atoms: _47  and  _50
REMARK   22  A    between atoms: _50  and  _51
REMARK   23  A    between atoms: _54  and  _56
REMARK   24  A    between atoms: _56  and  _57
REMARK   25  A    between atoms: _59  and  _61
REMARK   26  A    between atoms: _61  and  _62
REMARK   27  A    between atoms: _65  and  _67
REMARK   28  A    between atoms: _67  and  _68
REMARK   29  A    between atoms: _67  and  _70
REMARK   30  A    between atoms: _70  and  _71
REMARK   31  A    between atoms: _74  and  _76
REMARK   32  A    between atoms: _76  and  _77
REMARK   33  A    between atoms: _76  and  _79
REMARK   34  A    between atoms: _79  and  _80
REMARK   35  A    between atoms: _83  and  _85
REMARK   36  A    between atoms: _85  and  _86
REMARK   37  A    between atoms: _85  and  _88
REMARK   38  A    between atoms: _88  and  _89
REMARK   39  A    between atoms: _92  and  _94
REMARK   40  A    between atoms: _94  and  _95
REMARK   41  A    between atoms: _94  and  _97
REMARK   42  A    between atoms: _100  and  _102
REMARK   43  A    between atoms: _102  and  _103
REMARK   44  A    between atoms: _102  and  _105
REMARK   45  A    between atoms: _105  and  _106
REMARK   46  A    between atoms: _109  and  _111
REMARK   47  A    between atoms: _111  and  _112
REMARK   48  A    between atoms: _114  and  _116
REMARK   49  A    between atoms: _116  and  _117
REMARK   50  A    between atoms: _119  and  _121
REMARK   51  A    between atoms: _121  and  _122
REMARK   52  A    between atoms: _121  and  _124
REMARK   53  A    between atoms: _124  and  _125
REMARK   54  A    between atoms: _128  and  _130
REMARK   55  A    between atoms: _130  and  _131
REMARK   56  A    between atoms: _133  and  _135
REMARK   57  A    between atoms: _135  and  _136
REMARK   58  A    between atoms: _138  and  _140
REMARK   59  A    between atoms: _140  and  _141
REMARK   60  A    between atoms: _140  and  _143
REMARK   61  A    between atoms: _143  and  _144
REMARK   62  A    between atoms: _150  and  _152
REMARK   63  A    between atoms: _152  and  _153
REMARK   64  A    between atoms: _152  and  _155
REMARK   65  A    between atoms: _155  and  _156
REMARK   66  A    between atoms: _159  and  _161
REMARK   67  A    between atoms: _161  and  _162
REMARK   68  A    between atoms: _161  and  _164
REMARK   69  A    between atoms: _164  and  _165
REMARK   70  A    between atoms: _169  and  _170
REMARK   71  A    between atoms: _175  and  _177
REMARK   72  A    between atoms: _177  and  _178
REMARK   73  A    between atoms: _177  and  _180
REMARK   74  A    between atoms: _180  and  _181
REMARK   75  A    between atoms: _185  and  _186
REMARK   76  A    between atoms: _191  and  _193
REMARK   77  A    between atoms: _193  and  _194
REMARK   78  A    between atoms: _193  and  _196
REMARK   79  A    between atoms: _199  and  _201
REMARK   80  A    between atoms: _201  and  _202
REMARK   81  A    between atoms: _201  and  _204
REMARK   82  A    between atoms: _204  and  _205
REMARK   83  A    between atoms: _210  and  _212
REMARK   84  A    between atoms: _212  and  _213
REMARK   85  A    between atoms: _212  and  _215
REMARK   86  A    between atoms: _215  and  _216
REMARK   87  A    between atoms: _219  and  _221
REMARK   88  A    between atoms: _221  and  _222
REMARK   89  A    between atoms: _221  and  _224
REMARK   90  A    between atoms: _224  and  _225
REMARK   91  A    between atoms: _228  and  _230
REMARK   92  A    between atoms: _230  and  _231
REMARK   93  A    between atoms: _233  and  _235
REMARK   94  A    between atoms: _235  and  _236
REMARK   95  A    between atoms: _235  and  _238
REMARK   96  A    between atoms: _238  and  _239
REMARK   97  A    between atoms: _239  and  _240
REMARK   98  A    between atoms: _240  and  _241
REMARK   99  A    between atoms: _250  and  _252
REMARK  100  A    between atoms: _252  and  _253
REMARK  101  A    between atoms: _252  and  _255
REMARK  102  A    between atoms: _255  and  _256
REMARK  103  A    between atoms: _261  and  _263
REMARK  104  A    between atoms: _263  and  _264
REMARK  105  A    between atoms: _263  and  _266
REMARK  106  A    between atoms: _266  and  _267
REMARK  107  A    between atoms: _267  and  _268
REMARK  108  A    between atoms: _268  and  _269
REMARK  109  A    between atoms: _278  and  _280
REMARK  110  A    between atoms: _280  and  _281
REMARK  111  A    between atoms: _280  and  _283
REMARK  112  A    between atoms: _283  and  _284
REMARK  113  A    between atoms: _287  and  _289
REMARK  114  A    between atoms: _289  and  _290
REMARK  115  A    between atoms: _289  and  _292
REMARK  116  A    between atoms: _292  and  _293
REMARK  117  A    between atoms: _296  and  _298
REMARK  118  A    between atoms: _298  and  _299
REMARK  119  A    between atoms: _298  and  _301
REMARK  120  A    between atoms: _301  and  _302
REMARK  121  A    between atoms: _305  and  _307
REMARK  122  A    between atoms: _307  and  _308
REMARK  123  A    between atoms: _307  and  _310
REMARK  124  A    between atoms: _310  and  _311
REMARK  125  A    between atoms: _314  and  _316
REMARK  126  A    between atoms: _316  and  _317
REMARK  127  A    between atoms: _319  and  _321
REMARK  128  A    between atoms: _321  and  _322
REMARK  129  A    between atoms: _325  and  _327
REMARK  130  A    between atoms: _327  and  _328
REMARK  131  A    between atoms: _327  and  _330
REMARK  132  A    between atoms: _330  and  _331
REMARK  133  A    between atoms: _334  and  _336
REMARK  134  A    between atoms: _336  and  _337
REMARK  135  A    between atoms: _336  and  _339
REMARK  136  A    between atoms: _339  and  _340
REMARK  137  A    between atoms: _343  and  _345
REMARK  138  A    between atoms: _345  and  _346
REMARK  139  A    between atoms: _345  and  _348
REMARK  140  A    between atoms: _348  and  _349
REMARK  141  A    between atoms: _352  and  _354
REMARK  142  A    between atoms: _354  and  _355
REMARK  143  A    between atoms: _354  and  _357
REMARK  144  A    between atoms: _360  and  _362
REMARK  145  A    between atoms: _362  and  _363
REMARK  146  A    between atoms: _362  and  _365
REMARK  147  A    between atoms: _365  and  _366
REMARK  148  A    between atoms: _366  and  _367
REMARK  149  A    between atoms: _367  and  _368
REMARK  150  A    between atoms: _368  and  _369
REMARK  151  A    between atoms: _373  and  _375
REMARK  152  A    between atoms: _375  and  _376
REMARK  153  A    between atoms: _375  and  _378
REMARK  154  A    between atoms: _378  and  _379
REMARK  155  A    between atoms: _379  and  _380
REMARK  156  A    between atoms: _382  and  _384
REMARK  157  A    between atoms: _384  and  _385
REMARK  158  A    between atoms: _384  and  _387
REMARK  159  A    between atoms: _387  and  _388
REMARK  160  A    between atoms: _391  and  _393
REMARK  161  A    between atoms: _393  and  _394
REMARK  162  A    between atoms: _396  and  _398
REMARK  163  A    between atoms: _398  and  _399
REMARK  164  A    between atoms: _401  and  _403
REMARK  165  A    between atoms: _403  and  _404
REMARK  166  A    between atoms: _403  and  _406
REMARK  167  A    between atoms: _406  and  _407
REMARK  168  A    between atoms: _410  and  _412
REMARK  169  A    between atoms: _412  and  _413
REMARK  170  A    between atoms: _415  and  _417
REMARK  171  A    between atoms: _417  and  _418
REMARK  172  A    between atoms: _420  and  _422
REMARK  173  A    between atoms: _422  and  _423
REMARK  174  A    between atoms: _422  and  _425
REMARK  175  A    between atoms: _425  and  _426
REMARK  176  A    between atoms: _432  and  _434
REMARK  177  A    between atoms: _434  and  _435
REMARK  178  A    between atoms: _434  and  _437
REMARK  179  A    between atoms: _437  and  _438
REMARK  180  A    between atoms: _441  and  _443
REMARK  181  A    between atoms: _443  and  _444
REMARK  182  A    between atoms: _443  and  _446
REMARK  183  A    between atoms: _449  and  _451
REMARK  184  A    between atoms: _451  and  _452
REMARK  185  A    between atoms: _451  and  _454
REMARK  186  A    between atoms: _454  and  _455
REMARK  187  A    between atoms: _458  and  _460
REMARK  188  A    between atoms: _460  and  _461
REMARK  189  A    between atoms: _460  and  _463
REMARK  190  A    between atoms: _463  and  _464
REMARK  191  A    between atoms: _468  and  _469
REMARK  192  A    between atoms: _474  and  _476
REMARK  193  A    between atoms: _476  and  _477
REMARK  194  A    between atoms: _476  and  _479
REMARK  195  A    between atoms: _482  and  _484
REMARK  196  A    between atoms: _484  and  _485
REMARK  197  A    between atoms: _484  and  _487
REMARK  198  A    between atoms: _487  and  _488
REMARK  199  A    between atoms: _493  and  _495
REMARK  200  A    between atoms: _495  and  _496
REMARK  201  A    between atoms: _495  and  _498
REMARK  202  A    between atoms: _498  and  _499
REMARK  203  A    between atoms: _502  and  _504
REMARK  204  A    between atoms: _504  and  _505
REMARK  205  A    between atoms: _504  and  _507
REMARK  206  A    between atoms: _507  and  _508
REMARK  207  A    between atoms: _511  and  _513
REMARK  208  A    between atoms: _513  and  _514
REMARK  209  A    between atoms: _516  and  _518
REMARK  210  A    between atoms: _518  and  _519
REMARK  211  A    between atoms: _518  and  _521
REMARK  212  A    between atoms: _521  and  _522
REMARK  213  A    between atoms: _522  and  _523
REMARK  214  A    between atoms: _523  and  _524
REMARK  215  A    between atoms: _533  and  _535
REMARK  216  A    between atoms: _535  and  _536
REMARK  217  A    between atoms: _535  and  _538
REMARK  218  A    between atoms: _538  and  _539
REMARK                            x       y       z     vdW  Elec       q    Type
REMARK                         _______ _______ _______ _____ _____    ______ ____
ROOT
ATOM      1  O   HOH     1      19.801  23.383  13.290  0.00  0.00    +0.000 OA
ENDROOT
TORSDOF 0
REMARK  Name = ../refined-set-2016/2qhy/2qhy_pocket.pdb
REMARK  218 active torsions:
REMARK  status: ('A' for Active; 'I' for Inactive)
REMARK    1  A    between atoms: _1  and  _3
REMARK    2  A    between atoms: _3  and  _4
REMARK    3  A    between atoms: _3  and  _6
REMARK    4  A    between atoms: _6  and  _7
REMARK    5  A    between atoms: _7  and  _8
REMARK    6  A    between atoms: _8  and  _9
REMARK    7  A    between atoms: _18  and  _20
REMARK    8  A    between atoms: _20  and  _21
REMARK    9  A    between atoms: _20  and  _23
REMARK   10  A    between atoms: _23  and  _24
REMARK   11  A    between atoms: _27  and  _29
REMARK   12  A    between atoms: _29  and  _30
REMARK   13  A    between atoms: _29  and  _32
REMARK   14  A    between atoms: _32  and  _33
REMARK   15  A    between atoms: _36  and  _38
REMARK   16  A    between atoms: _38  and  _39
REMARK   17  A    between atoms: _38  and  _41
REMARK   18  A    between atoms: _41  and  _42
REMARK   19  A    between atoms: _45  and  _47
REMARK   20  A    between atoms: _47  and  _48
REMARK   21  A    between atoms: _47  and  _50
REMARK   22  A    between atoms: _50  and  _51
REMARK   23  A    between atoms: _54  and  _56
REMARK   24  A    between atoms: _56  and  _57
REMARK   25  A    between atoms: _59  and  _61
REMARK   26  A    between atoms: _61  and  _62
REMARK   27  A    between atoms: _65  and  _67
REMARK   28  A    between atoms: _67  and  _68
REMARK   29  A    between atoms: _67  and  _70
REMARK   30  A    between atoms: _70  and  _71
REMARK   31  A    between atoms: _74  and  _76
REMARK   32  A    between atoms: _76  and  _77
REMARK   33  A    between atoms: _76  and  _79
REMARK   34  A    between atoms: _79  and  _80
REMARK   35  A    between atoms: _83  and  _85
REMARK   36  A    between atoms: _85  and  _86
REMARK   37  A    between atoms: _85  and  _88
REMARK   38  A    between atoms: _88  and  _89
REMARK   39  A    between atoms: _92  and  _94
REMARK   40  A    between atoms: _94  and  _95
REMARK   41  A    between atoms: _94  and  _97
REMARK   42  A    between atoms: _100  and  _102
REMARK   43  A    between atoms: _102  and  _103
REMARK   44  A    between atoms: _102  and  _105
REMARK   45  A    between atoms: _105  and  _106
REMARK   46  A    between atoms: _109  and  _111
REMARK   47  A    between atoms: _111  and  _112
REMARK   48  A    between atoms: _114  and  _116
REMARK   49  A    between atoms: _116  and  _117
REMARK   50  A    between atoms: _119  and  _121
REMARK   51  A    between atoms: _121  and  _122
REMARK   52  A    between atoms: _121  and  _124
REMARK   53  A    between atoms: _124  and  _125
REMARK   54  A    between atoms: _128  and  _130
REMARK   55  A    between atoms: _130  and  _131
REMARK   56  A    between atoms: _133  and  _135
REMARK   57  A    between atoms: _135  and  _136
REMARK   58  A    between atoms: _138  and  _140
REMARK   59  A    between atoms: _140  and  _141
REMARK   60  A    between atoms: _140  and  _143
REMARK   61  A    between atoms: _143  and  _144
REMARK   62  A    between atoms: _150  and  _152
REMARK   63  A    between atoms: _152  and  _153
REMARK   64  A    between atoms: _152  and  _155
REMARK   65  A    between atoms: _155  and  _156
REMARK   66  A    between atoms: _159  and  _161
REMARK   67  A    between atoms: _161  and  _162
REMARK   68  A    between atoms: _161  and  _164
REMARK   69  A    between atoms: _164  and  _165
REMARK   70  A    between atoms: _169  and  _170
REMARK   71  A    between atoms: _175  and  _177
REMARK   72  A    between atoms: _177  and  _178
REMARK   73  A    between atoms: _177  and  _180
REMARK   74  A    between atoms: _180  and  _181
REMARK   75  A    between atoms: _185  and  _186
REMARK   76  A    between atoms: _191  and  _193
REMARK   77  A    between atoms: _193  and  _194
REMARK   78  A    between atoms: _193  and  _196
REMARK   79  A    between atoms: _199  and  _201
REMARK   80  A    between atoms: _201  and  _202
REMARK   81  A    between atoms: _201  and  _204
REMARK   82  A    between atoms: _204  and  _205
REMARK   83  A    between atoms: _210  and  _212
REMARK   84  A    between atoms: _212  and  _213
REMARK   85  A    between atoms: _212  and  _215
REMARK   86  A    between atoms: _215  and  _216
REMARK   87  A    between atoms: _219  and  _221
REMARK   88  A    between atoms: _221  and  _222
REMARK   89  A    between atoms: _221  and  _224
REMARK   90  A    between atoms: _224  and  _225
REMARK   91  A    between atoms: _228  and  _230
REMARK   92  A    between atoms: _230  and  _231
REMARK   93  A    between atoms: _233  and  _235
REMARK   94  A    between atoms: _235  and  _236
REMARK   95  A    between atoms: _235  and  _238
REMARK   96  A    between atoms: _238  and  _239
REMARK   97  A    between atoms: _239  and  _240
REMARK   98  A    between atoms: _240  and  _241
REMARK   99  A    between atoms: _250  and  _252
REMARK  100  A    between atoms: _252  and  _253
REMARK  101  A    between atoms: _252  and  _255
REMARK  102  A    between atoms: _255  and  _256
REMARK  103  A    between atoms: _261  and  _263
REMARK  104  A    between atoms: _263  and  _264
REMARK  105  A    between atoms: _263  and  _266
REMARK  106  A    between atoms: _266  and  _267
REMARK  107  A    between atoms: _267  and  _268
REMARK  108  A    between atoms: _268  and  _269
REMARK  109  A    between atoms: _278  and  _280
REMARK  110  A    between atoms: _280  and  _281
REMARK  111  A    between atoms: _280  and  _283
REMARK  112  A    between atoms: _283  and  _284
REMARK  113  A    between atoms: _287  and  _289
REMARK  114  A    between atoms: _289  and  _290
REMARK  115  A    between atoms: _289  and  _292
REMARK  116  A    between atoms: _292  and  _293
REMARK  117  A    between atoms: _296  and  _298
REMARK  118  A    between atoms: _298  and  _299
REMARK  119  A    between atoms: _298  and  _301
REMARK  120  A    between atoms: _301  and  _302
REMARK  121  A    between atoms: _305  and  _307
REMARK  122  A    between atoms: _307  and  _308
REMARK  123  A    between atoms: _307  and  _310
REMARK  124  A    between atoms: _310  and  _311
REMARK  125  A    between atoms: _314  and  _316
REMARK  126  A    between atoms: _316  and  _317
REMARK  127  A    between atoms: _319  and  _321
REMARK  128  A    between atoms: _321  and  _322
REMARK  129  A    between atoms: _325  and  _327
REMARK  130  A    between atoms: _327  and  _328
REMARK  131  A    between atoms: _327  and  _330
REMARK  132  A    between atoms: _330  and  _331
REMARK  133  A    between atoms: _334  and  _336
REMARK  134  A    between atoms: _336  and  _337
REMARK  135  A    between atoms: _336  and  _339
REMARK  136  A    between atoms: _339  and  _340
REMARK  137  A    between atoms: _343  and  _345
REMARK  138  A    between atoms: _345  and  _346
REMARK  139  A    between atoms: _345  and  _348
REMARK  140  A    between atoms: _348  and  _349
REMARK  141  A    between atoms: _352  and  _354
REMARK  142  A    between atoms: _354  and  _355
REMARK  143  A    between atoms: _354  and  _357
REMARK  144  A    between atoms: _360  and  _362
REMARK  145  A    between atoms: _362  and  _363
REMARK  146  A    between atoms: _362  and  _365
REMARK  147  A    between atoms: _365  and  _366
REMARK  148  A    between atoms: _366  and  _367
REMARK  149  A    between atoms: _367  and  _368
REMARK  150  A    between atoms: _368  and  _369
REMARK  151  A    between atoms: _373  and  _375
REMARK  152  A    between atoms: _375  and  _376
REMARK  153  A    between atoms: _375  and  _378
REMARK  154  A    between atoms: _378  and  _379
REMARK  155  A    between atoms: _379  and  _380
REMARK  156  A    between atoms: _382  and  _384
REMARK  157  A    between atoms: _384  and  _385
REMARK  158  A    between atoms: _384  and  _387
REMARK  159  A    between atoms: _387  and  _388
REMARK  160  A    between atoms: _391  and  _393
REMARK  161  A    between atoms: _393  and  _394
REMARK  162  A    between atoms: _396  and  _398
REMARK  163  A    between atoms: _398  and  _399
REMARK  164  A    between atoms: _401  and  _403
REMARK  165  A    between atoms: _403  and  _404
REMARK  166  A    between atoms: _403  and  _406
REMARK  167  A    between atoms: _406  and  _407
REMARK  168  A    between atoms: _410  and  _412
REMARK  169  A    between atoms: _412  and  _413
REMARK  170  A    between atoms: _415  and  _417
REMARK  171  A    between atoms: _417  and  _418
REMARK  172  A    between atoms: _420  and  _422
REMARK  173  A    between atoms: _422  and  _423
REMARK  174  A    between atoms: _422  and  _425
REMARK  175  A    between atoms: _425  and  _426
REMARK  176  A    between atoms: _432  and  _434
REMARK  177  A    between atoms: _434  and  _435
REMARK  178  A    between atoms: _434  and  _437
REMARK  179  A    between atoms: _437  and  _438
REMARK  180  A    between atoms: _441  and  _443
REMARK  181  A    between atoms: _443  and  _444
REMARK  182  A    between atoms: _443  and  _446
REMARK  183  A    between atoms: _449  and  _451
REMARK  184  A    between atoms: _451  and  _452
REMARK  185  A    between atoms: _451  and  _454
REMARK  186  A    between atoms: _454  and  _455
REMARK  187  A    between atoms: _458  and  _460
REMARK  188  A    between atoms: _460  and  _461
REMARK  189  A    between atoms: _460  and  _463
REMARK  190  A    between atoms: _463  and  _464
REMARK  191  A    between atoms: _468  and  _469
REMARK  192  A    between atoms: _474  and  _476
REMARK  193  A    between atoms: _476  and  _477
REMARK  194  A    between atoms: _476  and  _479
REMARK  195  A    between atoms: _482  and  _484
REMARK  196  A    between atoms: _484  and  _485
REMARK  197  A    between atoms: _484  and  _487
REMARK  198  A    between atoms: _487  and  _488
REMARK  199  A    between atoms: _493  and  _495
REMARK  200  A    between atoms: _495  and  _496
REMARK  201  A    between atoms: _495  and  _498
REMARK  202  A    between atoms: _498  and  _499
REMARK  203  A    between atoms: _502  and  _504
REMARK  204  A    between atoms: _504  and  _505
REMARK  205  A    between atoms: _504  and  _507
REMARK  206  A    between atoms: _507  and  _508
REMARK  207  A    between atoms: _511  and  _513
REMARK  208  A    between atoms: _513  and  _514
REMARK  209  A    between atoms: _516  and  _518
REMARK  210  A    between atoms: _518  and  _519
REMARK  211  A    between atoms: _518  and  _521
REMARK  212  A    between atoms: _521  and  _522
REMARK  213  A    between atoms: _522  and  _523
REMARK  214  A    between atoms: _523  and  _524
REMARK  215  A    between atoms: _533  and  _535
REMARK  216  A    between atoms: _535  and  _536
REMARK  217  A    between atoms: _535  and  _538
REMARK  218  A    between atoms: _538  and  _539
REMARK                            x       y       z     vdW  Elec       q    Type
REMARK                         _______ _______ _______ _____ _____    ______ ____
ROOT
ATOM      1  O   HOH     1      23.141  25.531   6.112  0.00  0.00    +0.000 OA
ENDROOT
TORSDOF 0
REMARK  Name = ../refined-set-2016/2qhy/2qhy_pocket.pdb
REMARK  218 active torsions:
REMARK  status: ('A' for Active; 'I' for Inactive)
REMARK    1  A    between atoms: _1  and  _3
REMARK    2  A    between atoms: _3  and  _4
REMARK    3  A    between atoms: _3  and  _6
REMARK    4  A    between atoms: _6  and  _7
REMARK    5  A    between atoms: _7  and  _8
REMARK    6  A    between atoms: _8  and  _9
REMARK    7  A    between atoms: _18  and  _20
REMARK    8  A    between atoms: _20  and  _21
REMARK    9  A    between atoms: _20  and  _23
REMARK   10  A    between atoms: _23  and  _24
REMARK   11  A    between atoms: _27  and  _29
REMARK   12  A    between atoms: _29  and  _30
REMARK   13  A    between atoms: _29  and  _32
REMARK   14  A    between atoms: _32  and  _33
REMARK   15  A    between atoms: _36  and  _38
REMARK   16  A    between atoms: _38  and  _39
REMARK   17  A    between atoms: _38  and  _41
REMARK   18  A    between atoms: _41  and  _42
REMARK   19  A    between atoms: _45  and  _47
REMARK   20  A    between atoms: _47  and  _48
REMARK   21  A    between atoms: _47  and  _50
REMARK   22  A    between atoms: _50  and  _51
REMARK   23  A    between atoms: _54  and  _56
REMARK   24  A    between atoms: _56  and  _57
REMARK   25  A    between atoms: _59  and  _61
REMARK   26  A    between atoms: _61  and  _62
REMARK   27  A    between atoms: _65  and  _67
REMARK   28  A    between atoms: _67  and  _68
REMARK   29  A    between atoms: _67  and  _70
REMARK   30  A    between atoms: _70  and  _71
REMARK   31  A    between atoms: _74  and  _76
REMARK   32  A    between atoms: _76  and  _77
REMARK   33  A    between atoms: _76  and  _79
REMARK   34  A    between atoms: _79  and  _80
REMARK   35  A    between atoms: _83  and  _85
REMARK   36  A    between atoms: _85  and  _86
REMARK   37  A    between atoms: _85  and  _88
REMARK   38  A    between atoms: _88  and  _89
REMARK   39  A    between atoms: _92  and  _94
REMARK   40  A    between atoms: _94  and  _95
REMARK   41  A    between atoms: _94  and  _97
REMARK   42  A    between atoms: _100  and  _102
REMARK   43  A    between atoms: _102  and  _103
REMARK   44  A    between atoms: _102  and  _105
REMARK   45  A    between atoms: _105  and  _106
REMARK   46  A    between atoms: _109  and  _111
REMARK   47  A    between atoms: _111  and  _112
REMARK   48  A    between atoms: _114  and  _116
REMARK   49  A    between atoms: _116  and  _117
REMARK   50  A    between atoms: _119  and  _121
REMARK   51  A    between atoms: _121  and  _122
REMARK   52  A    between atoms: _121  and  _124
REMARK   53  A    between atoms: _124  and  _125
REMARK   54  A    between atoms: _128  and  _130
REMARK   55  A    between atoms: _130  and  _131
REMARK   56  A    between atoms: _133  and  _135
REMARK   57  A    between atoms: _135  and  _136
REMARK   58  A    between atoms: _138  and  _140
REMARK   59  A    between atoms: _140  and  _141
REMARK   60  A    between atoms: _140  and  _143
REMARK   61  A    between atoms: _143  and  _144
REMARK   62  A    between atoms: _150  and  _152
REMARK   63  A    between atoms: _152  and  _153
REMARK   64  A    between atoms: _152  and  _155
REMARK   65  A    between atoms: _155  and  _156
REMARK   66  A    between atoms: _159  and  _161
REMARK   67  A    between atoms: _161  and  _162
REMARK   68  A    between atoms: _161  and  _164
REMARK   69  A    between atoms: _164  and  _165
REMARK   70  A    between atoms: _169  and  _170
REMARK   71  A    between atoms: _175  and  _177
REMARK   72  A    between atoms: _177  and  _178
REMARK   73  A    between atoms: _177  and  _180
REMARK   74  A    between atoms: _180  and  _181
REMARK   75  A    between atoms: _185  and  _186
REMARK   76  A    between atoms: _191  and  _193
REMARK   77  A    between atoms: _193  and  _194
REMARK   78  A    between atoms: _193  and  _196
REMARK   79  A    between atoms: _199  and  _201
REMARK   80  A    between atoms: _201  and  _202
REMARK   81  A    between atoms: _201  and  _204
REMARK   82  A    between atoms: _204  and  _205
REMARK   83  A    between atoms: _210  and  _212
REMARK   84  A    between atoms: _212  and  _213
REMARK   85  A    between atoms: _212  and  _215
REMARK   86  A    between atoms: _215  and  _216
REMARK   87  A    between atoms: _219  and  _221
REMARK   88  A    between atoms: _221  and  _222
REMARK   89  A    between atoms: _221  and  _224
REMARK   90  A    between atoms: _224  and  _225
REMARK   91  A    between atoms: _228  and  _230
REMARK   92  A    between atoms: _230  and  _231
REMARK   93  A    between atoms: _233  and  _235
REMARK   94  A    between atoms: _235  and  _236
REMARK   95  A    between atoms: _235  and  _238
REMARK   96  A    between atoms: _238  and  _239
REMARK   97  A    between atoms: _239  and  _240
REMARK   98  A    between atoms: _240  and  _241
REMARK   99  A    between atoms: _250  and  _252
REMARK  100  A    between atoms: _252  and  _253
REMARK  101  A    between atoms: _252  and  _255
REMARK  102  A    between atoms: _255  and  _256
REMARK  103  A    between atoms: _261  and  _263
REMARK  104  A    between atoms: _263  and  _264
REMARK  105  A    between atoms: _263  and  _266
REMARK  106  A    between atoms: _266  and  _267
REMARK  107  A    between atoms: _267  and  _268
REMARK  108  A    between atoms: _268  and  _269
REMARK  109  A    between atoms: _278  and  _280
REMARK  110  A    between atoms: _280  and  _281
REMARK  111  A    between atoms: _280  and  _283
REMARK  112  A    between atoms: _283  and  _284
REMARK  113  A    between atoms: _287  and  _289
REMARK  114  A    between atoms: _289  and  _290
REMARK  115  A    between atoms: _289  and  _292
REMARK  116  A    between atoms: _292  and  _293
REMARK  117  A    between atoms: _296  and  _298
REMARK  118  A    between atoms: _298  and  _299
REMARK  119  A    between atoms: _298  and  _301
REMARK  120  A    between atoms: _301  and  _302
REMARK  121  A    between atoms: _305  and  _307
REMARK  122  A    between atoms: _307  and  _308
REMARK  123  A    between atoms: _307  and  _310
REMARK  124  A    between atoms: _310  and  _311
REMARK  125  A    between atoms: _314  and  _316
REMARK  126  A    between atoms: _316  and  _317
REMARK  127  A    between atoms: _319  and  _321
REMARK  128  A    between atoms: _321  and  _322
REMARK  129  A    between atoms: _325  and  _327
REMARK  130  A    between atoms: _327  and  _328
REMARK  131  A    between atoms: _327  and  _330
REMARK  132  A    between atoms: _330  and  _331
REMARK  133  A    between atoms: _334  and  _336
REMARK  134  A    between atoms: _336  and  _337
REMARK  135  A    between atoms: _336  and  _339
REMARK  136  A    between atoms: _339  and  _340
REMARK  137  A    between atoms: _343  and  _345
REMARK  138  A    between atoms: _345  and  _346
REMARK  139  A    between atoms: _345  and  _348
REMARK  140  A    between atoms: _348  and  _349
REMARK  141  A    between atoms: _352  and  _354
REMARK  142  A    between atoms: _354  and  _355
REMARK  143  A    between atoms: _354  and  _357
REMARK  144  A    between atoms: _360  and  _362
REMARK  145  A    between atoms: _362  and  _363
REMARK  146  A    between atoms: _362  and  _365
REMARK  147  A    between atoms: _365  and  _366
REMARK  148  A    between atoms: _366  and  _367
REMARK  149  A    between atoms: _367  and  _368
REMARK  150  A    between atoms: _368  and  _369
REMARK  151  A    between atoms: _373  and  _375
REMARK  152  A    between atoms: _375  and  _376
REMARK  153  A    between atoms: _375  and  _378
REMARK  154  A    between atoms: _378  and  _379
REMARK  155  A    between atoms: _379  and  _380
REMARK  156  A    between atoms: _382  and  _384
REMARK  157  A    between atoms: _384  and  _385
REMARK  158  A    between atoms: _384  and  _387
REMARK  159  A    between atoms: _387  and  _388
REMARK  160  A    between atoms: _391  and  _393
REMARK  161  A    between atoms: _393  and  _394
REMARK  162  A    between atoms: _396  and  _398
REMARK  163  A    between atoms: _398  and  _399
REMARK  164  A    between atoms: _401  and  _403
REMARK  165  A    between atoms: _403  and  _404
REMARK  166  A    between atoms: _403  and  _406
REMARK  167  A    between atoms: _406  and  _407
REMARK  168  A    between atoms: _410  and  _412
REMARK  169  A    between atoms: _412  and  _413
REMARK  170  A    between atoms: _415  and  _417
REMARK  171  A    between atoms: _417  and  _418
REMARK  172  A    between atoms: _420  and  _422
REMARK  173  A    between atoms: _422  and  _423
REMARK  174  A    between atoms: _422  and  _425
REMARK  175  A    between atoms: _425  and  _426
REMARK  176  A    between atoms: _432  and  _434
REMARK  177  A    between atoms: _434  and  _435
REMARK  178  A    between atoms: _434  and  _437
REMARK  179  A    between atoms: _437  and  _438
REMARK  180  A    between atoms: _441  and  _443
REMARK  181  A    between atoms: _443  and  _444
REMARK  182  A    between atoms: _443  and  _446
REMARK  183  A    between atoms: _449  and  _451
REMARK  184  A    between atoms: _451  and  _452
REMARK  185  A    between atoms: _451  and  _454
REMARK  186  A    between atoms: _454  and  _455
REMARK  187  A    between atoms: _458  and  _460
REMARK  188  A    between atoms: _460  and  _461
REMARK  189  A    between atoms: _460  and  _463
REMARK  190  A    between atoms: _463  and  _464
REMARK  191  A    between atoms: _468  and  _469
REMARK  192  A    between atoms: _474  and  _476
REMARK  193  A    between atoms: _476  and  _477
REMARK  194  A    between atoms: _476  and  _479
REMARK  195  A    between atoms: _482  and  _484
REMARK  196  A    between atoms: _484  and  _485
REMARK  197  A    between atoms: _484  and  _487
REMARK  198  A    between atoms: _487  and  _488
REMARK  199  A    between atoms: _493  and  _495
REMARK  200  A    between atoms: _495  and  _496
REMARK  201  A    between atoms: _495  and  _498
REMARK  202  A    between atoms: _498  and  _499
REMARK  203  A    between atoms: _502  and  _504
REMARK  204  A    between atoms: _504  and  _505
REMARK  205  A    between atoms: _504  and  _507
REMARK  206  A    between atoms: _507  and  _508
REMARK  207  A    between atoms: _511  and  _513
REMARK  208  A    between atoms: _513  and  _514
REMARK  209  A    between atoms: _516  and  _518
REMARK  210  A    between atoms: _518  and  _519
REMARK  211  A    between atoms: _518  and  _521
REMARK  212  A    between atoms: _521  and  _522
REMARK  213  A    between atoms: _522  and  _523
REMARK  214  A    between atoms: _523  and  _524
REMARK  215  A    between atoms: _533  and  _535
REMARK  216  A    between atoms: _535  and  _536
REMARK  217  A    between atoms: _535  and  _538
REMARK  218  A    between atoms: _538  and  _539
REMARK                            x       y       z     vdW  Elec       q    Type
REMARK                         _______ _______ _______ _____ _____    ______ ____
ROOT
ATOM      1  O   HOH     1      20.805  34.398  21.754  0.00  0.00    +0.000 OA
ENDROOT
TORSDOF 0
REMARK  Name = ../refined-set-2016/2qhy/2qhy_pocket.pdb
REMARK  218 active torsions:
REMARK  status: ('A' for Active; 'I' for Inactive)
REMARK    1  A    between atoms: _1  and  _3
REMARK    2  A    between atoms: _3  and  _4
REMARK    3  A    between atoms: _3  and  _6
REMARK    4  A    between atoms: _6  and  _7
REMARK    5  A    between atoms: _7  and  _8
REMARK    6  A    between atoms: _8  and  _9
REMARK    7  A    between atoms: _18  and  _20
REMARK    8  A    between atoms: _20  and  _21
REMARK    9  A    between atoms: _20  and  _23
REMARK   10  A    between atoms: _23  and  _24
REMARK   11  A    between atoms: _27  and  _29
REMARK   12  A    between atoms: _29  and  _30
REMARK   13  A    between atoms: _29  and  _32
REMARK   14  A    between atoms: _32  and  _33
REMARK   15  A    between atoms: _36  and  _38
REMARK   16  A    between atoms: _38  and  _39
REMARK   17  A    between atoms: _38  and  _41
REMARK   18  A    between atoms: _41  and  _42
REMARK   19  A    between atoms: _45  and  _47
REMARK   20  A    between atoms: _47  and  _48
REMARK   21  A    between atoms: _47  and  _50
REMARK   22  A    between atoms: _50  and  _51
REMARK   23  A    between atoms: _54  and  _56
REMARK   24  A    between atoms: _56  and  _57
REMARK   25  A    between atoms: _59  and  _61
REMARK   26  A    between atoms: _61  and  _62
REMARK   27  A    between atoms: _65  and  _67
REMARK   28  A    between atoms: _67  and  _68
REMARK   29  A    between atoms: _67  and  _70
REMARK   30  A    between atoms: _70  and  _71
REMARK   31  A    between atoms: _74  and  _76
REMARK   32  A    between atoms: _76  and  _77
REMARK   33  A    between atoms: _76  and  _79
REMARK   34  A    between atoms: _79  and  _80
REMARK   35  A    between atoms: _83  and  _85
REMARK   36  A    between atoms: _85  and  _86
REMARK   37  A    between atoms: _85  and  _88
REMARK   38  A    between atoms: _88  and  _89
REMARK   39  A    between atoms: _92  and  _94
REMARK   40  A    between atoms: _94  and  _95
REMARK   41  A    between atoms: _94  and  _97
REMARK   42  A    between atoms: _100  and  _102
REMARK   43  A    between atoms: _102  and  _103
REMARK   44  A    between atoms: _102  and  _105
REMARK   45  A    between atoms: _105  and  _106
REMARK   46  A    between atoms: _109  and  _111
REMARK   47  A    between atoms: _111  and  _112
REMARK   48  A    between atoms: _114  and  _116
REMARK   49  A    between atoms: _116  and  _117
REMARK   50  A    between atoms: _119  and  _121
REMARK   51  A    between atoms: _121  and  _122
REMARK   52  A    between atoms: _121  and  _124
REMARK   53  A    between atoms: _124  and  _125
REMARK   54  A    between atoms: _128  and  _130
REMARK   55  A    between atoms: _130  and  _131
REMARK   56  A    between atoms: _133  and  _135
REMARK   57  A    between atoms: _135  and  _136
REMARK   58  A    between atoms: _138  and  _140
REMARK   59  A    between atoms: _140  and  _141
REMARK   60  A    between atoms: _140  and  _143
REMARK   61  A    between atoms: _143  and  _144
REMARK   62  A    between atoms: _150  and  _152
REMARK   63  A    between atoms: _152  and  _153
REMARK   64  A    between atoms: _152  and  _155
REMARK   65  A    between atoms: _155  and  _156
REMARK   66  A    between atoms: _159  and  _161
REMARK   67  A    between atoms: _161  and  _162
REMARK   68  A    between atoms: _161  and  _164
REMARK   69  A    between atoms: _164  and  _165
REMARK   70  A    between atoms: _169  and  _170
REMARK   71  A    between atoms: _175  and  _177
REMARK   72  A    between atoms: _177  and  _178
REMARK   73  A    between atoms: _177  and  _180
REMARK   74  A    between atoms: _180  and  _181
REMARK   75  A    between atoms: _185  and  _186
REMARK   76  A    between atoms: _191  and  _193
REMARK   77  A    between atoms: _193  and  _194
REMARK   78  A    between atoms: _193  and  _196
REMARK   79  A    between atoms: _199  and  _201
REMARK   80  A    between atoms: _201  and  _202
REMARK   81  A    between atoms: _201  and  _204
REMARK   82  A    between atoms: _204  and  _205
REMARK   83  A    between atoms: _210  and  _212
REMARK   84  A    between atoms: _212  and  _213
REMARK   85  A    between atoms: _212  and  _215
REMARK   86  A    between atoms: _215  and  _216
REMARK   87  A    between atoms: _219  and  _221
REMARK   88  A    between atoms: _221  and  _222
REMARK   89  A    between atoms: _221  and  _224
REMARK   90  A    between atoms: _224  and  _225
REMARK   91  A    between atoms: _228  and  _230
REMARK   92  A    between atoms: _230  and  _231
REMARK   93  A    between atoms: _233  and  _235
REMARK   94  A    between atoms: _235  and  _236
REMARK   95  A    between atoms: _235  and  _238
REMARK   96  A    between atoms: _238  and  _239
REMARK   97  A    between atoms: _239  and  _240
REMARK   98  A    between atoms: _240  and  _241
REMARK   99  A    between atoms: _250  and  _252
REMARK  100  A    between atoms: _252  and  _253
REMARK  101  A    between atoms: _252  and  _255
REMARK  102  A    between atoms: _255  and  _256
REMARK  103  A    between atoms: _261  and  _263
REMARK  104  A    between atoms: _263  and  _264
REMARK  105  A    between atoms: _263  and  _266
REMARK  106  A    between atoms: _266  and  _267
REMARK  107  A    between atoms: _267  and  _268
REMARK  108  A    between atoms: _268  and  _269
REMARK  109  A    between atoms: _278  and  _280
REMARK  110  A    between atoms: _280  and  _281
REMARK  111  A    between atoms: _280  and  _283
REMARK  112  A    between atoms: _283  and  _284
REMARK  113  A    between atoms: _287  and  _289
REMARK  114  A    between atoms: _289  and  _290
REMARK  115  A    between atoms: _289  and  _292
REMARK  116  A    between atoms: _292  and  _293
REMARK  117  A    between atoms: _296  and  _298
REMARK  118  A    between atoms: _298  and  _299
REMARK  119  A    between atoms: _298  and  _301
REMARK  120  A    between atoms: _301  and  _302
REMARK  121  A    between atoms: _305  and  _307
REMARK  122  A    between atoms: _307  and  _308
REMARK  123  A    between atoms: _307  and  _310
REMARK  124  A    between atoms: _310  and  _311
REMARK  125  A    between atoms: _314  and  _316
REMARK  126  A    between atoms: _316  and  _317
REMARK  127  A    between atoms: _319  and  _321
REMARK  128  A    between atoms: _321  and  _322
REMARK  129  A    between atoms: _325  and  _327
REMARK  130  A    between atoms: _327  and  _328
REMARK  131  A    between atoms: _327  and  _330
REMARK  132  A    between atoms: _330  and  _331
REMARK  133  A    between atoms: _334  and  _336
REMARK  134  A    between atoms: _336  and  _337
REMARK  135  A    between atoms: _336  and  _339
REMARK  136  A    between atoms: _339  and  _340
REMARK  137  A    between atoms: _343  and  _345
REMARK  138  A    between atoms: _345  and  _346
REMARK  139  A    between atoms: _345  and  _348
REMARK  140  A    between atoms: _348  and  _349
REMARK  141  A    between atoms: _352  and  _354
REMARK  142  A    between atoms: _354  and  _355
REMARK  143  A    between atoms: _354  and  _357
REMARK  144  A    between atoms: _360  and  _362
REMARK  145  A    between atoms: _362  and  _363
REMARK  146  A    between atoms: _362  and  _365
REMARK  147  A    between atoms: _365  and  _366
REMARK  148  A    between atoms: _366  and  _367
REMARK  149  A    between atoms: _367  and  _368
REMARK  150  A    between atoms: _368  and  _369
REMARK  151  A    between atoms: _373  and  _375
REMARK  152  A    between atoms: _375  and  _376
REMARK  153  A    between atoms: _375  and  _378
REMARK  154  A    between atoms: _378  and  _379
REMARK  155  A    between atoms: _379  and  _380
REMARK  156  A    between atoms: _382  and  _384
REMARK  157  A    between atoms: _384  and  _385
REMARK  158  A    between atoms: _384  and  _387
REMARK  159  A    between atoms: _387  and  _388
REMARK  160  A    between atoms: _391  and  _393
REMARK  161  A    between atoms: _393  and  _394
REMARK  162  A    between atoms: _396  and  _398
REMARK  163  A    between atoms: _398  and  _399
REMARK  164  A    between atoms: _401  and  _403
REMARK  165  A    between atoms: _403  and  _404
REMARK  166  A    between atoms: _403  and  _406
REMARK  167  A    between atoms: _406  and  _407
REMARK  168  A    between atoms: _410  and  _412
REMARK  169  A    between atoms: _412  and  _413
REMARK  170  A    between atoms: _415  and  _417
REMARK  171  A    between atoms: _417  and  _418
REMARK  172  A    between atoms: _420  and  _422
REMARK  173  A    between atoms: _422  and  _423
REMARK  174  A    between atoms: _422  and  _425
REMARK  175  A    between atoms: _425  and  _426
REMARK  176  A    between atoms: _432  and  _434
REMARK  177  A    between atoms: _434  and  _435
REMARK  178  A    between atoms: _434  and  _437
REMARK  179  A    between atoms: _437  and  _438
REMARK  180  A    between atoms: _441  and  _443
REMARK  181  A    between atoms: _443  and  _444
REMARK  182  A    between atoms: _443  and  _446
REMARK  183  A    between atoms: _449  and  _451
REMARK  184  A    between atoms: _451  and  _452
REMARK  185  A    between atoms: _451  and  _454
REMARK  186  A    between atoms: _454  and  _455
REMARK  187  A    between atoms: _458  and  _460
REMARK  188  A    between atoms: _460  and  _461
REMARK  189  A    between atoms: _460  and  _463
REMARK  190  A    between atoms: _463  and  _464
REMARK  191  A    between atoms: _468  and  _469
REMARK  192  A    between atoms: _474  and  _476
REMARK  193  A    between atoms: _476  and  _477
REMARK  194  A    between atoms: _476  and  _479
REMARK  195  A    between atoms: _482  and  _484
REMARK  196  A    between atoms: _484  and  _485
REMARK  197  A    between atoms: _484  and  _487
REMARK  198  A    between atoms: _487  and  _488
REMARK  199  A    between atoms: _493  and  _495
REMARK  200  A    between atoms: _495  and  _496
REMARK  201  A    between atoms: _495  and  _498
REMARK  202  A    between atoms: _498  and  _499
REMARK  203  A    between atoms: _502  and  _504
REMARK  204  A    between atoms: _504  and  _505
REMARK  205  A    between atoms: _504  and  _507
REMARK  206  A    between atoms: _507  and  _508
REMARK  207  A    between atoms: _511  and  _513
REMARK  208  A    between atoms: _513  and  _514
REMARK  209  A    between atoms: _516  and  _518
REMARK  210  A    between atoms: _518  and  _519
REMARK  211  A    between atoms: _518  and  _521
REMARK  212  A    between atoms: _521  and  _522
REMARK  213  A    between atoms: _522  and  _523
REMARK  214  A    between atoms: _523  and  _524
REMARK  215  A    between atoms: _533  and  _535
REMARK  216  A    between atoms: _535  and  _536
REMARK  217  A    between atoms: _535  and  _538
REMARK  218  A    between atoms: _538  and  _539
REMARK                            x       y       z     vdW  Elec       q    Type
REMARK                         _______ _______ _______ _____ _____    ______ ____
ROOT
ATOM      1  O   HOH     1      20.311  32.521  12.002  0.00  0.00    +0.000 OA
ENDROOT
TORSDOF 0
REMARK  Name = ../refined-set-2016/2qhy/2qhy_pocket.pdb
REMARK  218 active torsions:
REMARK  status: ('A' for Active; 'I' for Inactive)
REMARK    1  A    between atoms: _1  and  _3
REMARK    2  A    between atoms: _3  and  _4
REMARK    3  A    between atoms: _3  and  _6
REMARK    4  A    between atoms: _6  and  _7
REMARK    5  A    between atoms: _7  and  _8
REMARK    6  A    between atoms: _8  and  _9
REMARK    7  A    between atoms: _18  and  _20
REMARK    8  A    between atoms: _20  and  _21
REMARK    9  A    between atoms: _20  and  _23
REMARK   10  A    between atoms: _23  and  _24
REMARK   11  A    between atoms: _27  and  _29
REMARK   12  A    between atoms: _29  and  _30
REMARK   13  A    between atoms: _29  and  _32
REMARK   14  A    between atoms: _32  and  _33
REMARK   15  A    between atoms: _36  and  _38
REMARK   16  A    between atoms: _38  and  _39
REMARK   17  A    between atoms: _38  and  _41
REMARK   18  A    between atoms: _41  and  _42
REMARK   19  A    between atoms: _45  and  _47
REMARK   20  A    between atoms: _47  and  _48
REMARK   21  A    between atoms: _47  and  _50
REMARK   22  A    between atoms: _50  and  _51
REMARK   23  A    between atoms: _54  and  _56
REMARK   24  A    between atoms: _56  and  _57
REMARK   25  A    between atoms: _59  and  _61
REMARK   26  A    between atoms: _61  and  _62
REMARK   27  A    between atoms: _65  and  _67
REMARK   28  A    between atoms: _67  and  _68
REMARK   29  A    between atoms: _67  and  _70
REMARK   30  A    between atoms: _70  and  _71
REMARK   31  A    between atoms: _74  and  _76
REMARK   32  A    between atoms: _76  and  _77
REMARK   33  A    between atoms: _76  and  _79
REMARK   34  A    between atoms: _79  and  _80
REMARK   35  A    between atoms: _83  and  _85
REMARK   36  A    between atoms: _85  and  _86
REMARK   37  A    between atoms: _85  and  _88
REMARK   38  A    between atoms: _88  and  _89
REMARK   39  A    between atoms: _92  and  _94
REMARK   40  A    between atoms: _94  and  _95
REMARK   41  A    between atoms: _94  and  _97
REMARK   42  A    between atoms: _100  and  _102
REMARK   43  A    between atoms: _102  and  _103
REMARK   44  A    between atoms: _102  and  _105
REMARK   45  A    between atoms: _105  and  _106
REMARK   46  A    between atoms: _109  and  _111
REMARK   47  A    between atoms: _111  and  _112
REMARK   48  A    between atoms: _114  and  _116
REMARK   49  A    between atoms: _116  and  _117
REMARK   50  A    between atoms: _119  and  _121
REMARK   51  A    between atoms: _121  and  _122
REMARK   52  A    between atoms: _121  and  _124
REMARK   53  A    between atoms: _124  and  _125
REMARK   54  A    between atoms: _128  and  _130
REMARK   55  A    between atoms: _130  and  _131
REMARK   56  A    between atoms: _133  and  _135
REMARK   57  A    between atoms: _135  and  _136
REMARK   58  A    between atoms: _138  and  _140
REMARK   59  A    between atoms: _140  and  _141
REMARK   60  A    between atoms: _140  and  _143
REMARK   61  A    between atoms: _143  and  _144
REMARK   62  A    between atoms: _150  and  _152
REMARK   63  A    between atoms: _152  and  _153
REMARK   64  A    between atoms: _152  and  _155
REMARK   65  A    between atoms: _155  and  _156
REMARK   66  A    between atoms: _159  and  _161
REMARK   67  A    between atoms: _161  and  _162
REMARK   68  A    between atoms: _161  and  _164
REMARK   69  A    between atoms: _164  and  _165
REMARK   70  A    between atoms: _169  and  _170
REMARK   71  A    between atoms: _175  and  _177
REMARK   72  A    between atoms: _177  and  _178
REMARK   73  A    between atoms: _177  and  _180
REMARK   74  A    between atoms: _180  and  _181
REMARK   75  A    between atoms: _185  and  _186
REMARK   76  A    between atoms: _191  and  _193
REMARK   77  A    between atoms: _193  and  _194
REMARK   78  A    between atoms: _193  and  _196
REMARK   79  A    between atoms: _199  and  _201
REMARK   80  A    between atoms: _201  and  _202
REMARK   81  A    between atoms: _201  and  _204
REMARK   82  A    between atoms: _204  and  _205
REMARK   83  A    between atoms: _210  and  _212
REMARK   84  A    between atoms: _212  and  _213
REMARK   85  A    between atoms: _212  and  _215
REMARK   86  A    between atoms: _215  and  _216
REMARK   87  A    between atoms: _219  and  _221
REMARK   88  A    between atoms: _221  and  _222
REMARK   89  A    between atoms: _221  and  _224
REMARK   90  A    between atoms: _224  and  _225
REMARK   91  A    between atoms: _228  and  _230
REMARK   92  A    between atoms: _230  and  _231
REMARK   93  A    between atoms: _233  and  _235
REMARK   94  A    between atoms: _235  and  _236
REMARK   95  A    between atoms: _235  and  _238
REMARK   96  A    between atoms: _238  and  _239
REMARK   97  A    between atoms: _239  and  _240
REMARK   98  A    between atoms: _240  and  _241
REMARK   99  A    between atoms: _250  and  _252
REMARK  100  A    between atoms: _252  and  _253
REMARK  101  A    between atoms: _252  and  _255
REMARK  102  A    between atoms: _255  and  _256
REMARK  103  A    between atoms: _261  and  _263
REMARK  104  A    between atoms: _263  and  _264
REMARK  105  A    between atoms: _263  and  _266
REMARK  106  A    between atoms: _266  and  _267
REMARK  107  A    between atoms: _267  and  _268
REMARK  108  A    between atoms: _268  and  _269
REMARK  109  A    between atoms: _278  and  _280
REMARK  110  A    between atoms: _280  and  _281
REMARK  111  A    between atoms: _280  and  _283
REMARK  112  A    between atoms: _283  and  _284
REMARK  113  A    between atoms: _287  and  _289
REMARK  114  A    between atoms: _289  and  _290
REMARK  115  A    between atoms: _289  and  _292
REMARK  116  A    between atoms: _292  and  _293
REMARK  117  A    between atoms: _296  and  _298
REMARK  118  A    between atoms: _298  and  _299
REMARK  119  A    between atoms: _298  and  _301
REMARK  120  A    between atoms: _301  and  _302
REMARK  121  A    between atoms: _305  and  _307
REMARK  122  A    between atoms: _307  and  _308
REMARK  123  A    between atoms: _307  and  _310
REMARK  124  A    between atoms: _310  and  _311
REMARK  125  A    between atoms: _314  and  _316
REMARK  126  A    between atoms: _316  and  _317
REMARK  127  A    between atoms: _319  and  _321
REMARK  128  A    between atoms: _321  and  _322
REMARK  129  A    between atoms: _325  and  _327
REMARK  130  A    between atoms: _327  and  _328
REMARK  131  A    between atoms: _327  and  _330
REMARK  132  A    between atoms: _330  and  _331
REMARK  133  A    between atoms: _334  and  _336
REMARK  134  A    between atoms: _336  and  _337
REMARK  135  A    between atoms: _336  and  _339
REMARK  136  A    between atoms: _339  and  _340
REMARK  137  A    between atoms: _343  and  _345
REMARK  138  A    between atoms: _345  and  _346
REMARK  139  A    between atoms: _345  and  _348
REMARK  140  A    between atoms: _348  and  _349
REMARK  141  A    between atoms: _352  and  _354
REMARK  142  A    between atoms: _354  and  _355
REMARK  143  A    between atoms: _354  and  _357
REMARK  144  A    between atoms: _360  and  _362
REMARK  145  A    between atoms: _362  and  _363
REMARK  146  A    between atoms: _362  and  _365
REMARK  147  A    between atoms: _365  and  _366
REMARK  148  A    between atoms: _366  and  _367
REMARK  149  A    between atoms: _367  and  _368
REMARK  150  A    between atoms: _368  and  _369
REMARK  151  A    between atoms: _373  and  _375
REMARK  152  A    between atoms: _375  and  _376
REMARK  153  A    between atoms: _375  and  _378
REMARK  154  A    between atoms: _378  and  _379
REMARK  155  A    between atoms: _379  and  _380
REMARK  156  A    between atoms: _382  and  _384
REMARK  157  A    between atoms: _384  and  _385
REMARK  158  A    between atoms: _384  and  _387
REMARK  159  A    between atoms: _387  and  _388
REMARK  160  A    between atoms: _391  and  _393
REMARK  161  A    between atoms: _393  and  _394
REMARK  162  A    between atoms: _396  and  _398
REMARK  163  A    between atoms: _398  and  _399
REMARK  164  A    between atoms: _401  and  _403
REMARK  165  A    between atoms: _403  and  _404
REMARK  166  A    between atoms: _403  and  _406
REMARK  167  A    between atoms: _406  and  _407
REMARK  168  A    between atoms: _410  and  _412
REMARK  169  A    between atoms: _412  and  _413
REMARK  170  A    between atoms: _415  and  _417
REMARK  171  A    between atoms: _417  and  _418
REMARK  172  A    between atoms: _420  and  _422
REMARK  173  A    between atoms: _422  and  _423
REMARK  174  A    between atoms: _422  and  _425
REMARK  175  A    between atoms: _425  and  _426
REMARK  176  A    between atoms: _432  and  _434
REMARK  177  A    between atoms: _434  and  _435
REMARK  178  A    between atoms: _434  and  _437
REMARK  179  A    between atoms: _437  and  _438
REMARK  180  A    between atoms: _441  and  _443
REMARK  181  A    between atoms: _443  and  _444
REMARK  182  A    between atoms: _443  and  _446
REMARK  183  A    between atoms: _449  and  _451
REMARK  184  A    between atoms: _451  and  _452
REMARK  185  A    between atoms: _451  and  _454
REMARK  186  A    between atoms: _454  and  _455
REMARK  187  A    between atoms: _458  and  _460
REMARK  188  A    between atoms: _460  and  _461
REMARK  189  A    between atoms: _460  and  _463
REMARK  190  A    between atoms: _463  and  _464
REMARK  191  A    between atoms: _468  and  _469
REMARK  192  A    between atoms: _474  and  _476
REMARK  193  A    between atoms: _476  and  _477
REMARK  194  A    between atoms: _476  and  _479
REMARK  195  A    between atoms: _482  and  _484
REMARK  196  A    between atoms: _484  and  _485
REMARK  197  A    between atoms: _484  and  _487
REMARK  198  A    between atoms: _487  and  _488
REMARK  199  A    between atoms: _493  and  _495
REMARK  200  A    between atoms: _495  and  _496
REMARK  201  A    between atoms: _495  and  _498
REMARK  202  A    between atoms: _498  and  _499
REMARK  203  A    between atoms: _502  and  _504
REMARK  204  A    between atoms: _504  and  _505
REMARK  205  A    between atoms: _504  and  _507
REMARK  206  A    between atoms: _507  and  _508
REMARK  207  A    between atoms: _511  and  _513
REMARK  208  A    between atoms: _513  and  _514
REMARK  209  A    between atoms: _516  and  _518
REMARK  210  A    between atoms: _518  and  _519
REMARK  211  A    between atoms: _518  and  _521
REMARK  212  A    between atoms: _521  and  _522
REMARK  213  A    between atoms: _522  and  _523
REMARK  214  A    between atoms: _523  and  _524
REMARK  215  A    between atoms: _533  and  _535
REMARK  216  A    between atoms: _535  and  _536
REMARK  217  A    between atoms: _535  and  _538
REMARK  218  A    between atoms: _538  and  _539
REMARK                            x       y       z     vdW  Elec       q    Type
REMARK                         _______ _______ _______ _____ _____    ______ ____
ROOT
ATOM      1  O   HOH     1      14.971  33.669   5.508  0.00  0.00    +0.000 OA
ENDROOT
TORSDOF 0
REMARK  Name = ../refined-set-2016/2qhy/2qhy_pocket.pdb
REMARK  218 active torsions:
REMARK  status: ('A' for Active; 'I' for Inactive)
REMARK    1  A    between atoms: _1  and  _3
REMARK    2  A    between atoms: _3  and  _4
REMARK    3  A    between atoms: _3  and  _6
REMARK    4  A    between atoms: _6  and  _7
REMARK    5  A    between atoms: _7  and  _8
REMARK    6  A    between atoms: _8  and  _9
REMARK    7  A    between atoms: _18  and  _20
REMARK    8  A    between atoms: _20  and  _21
REMARK    9  A    between atoms: _20  and  _23
REMARK   10  A    between atoms: _23  and  _24
REMARK   11  A    between atoms: _27  and  _29
REMARK   12  A    between atoms: _29  and  _30
REMARK   13  A    between atoms: _29  and  _32
REMARK   14  A    between atoms: _32  and  _33
REMARK   15  A    between atoms: _36  and  _38
REMARK   16  A    between atoms: _38  and  _39
REMARK   17  A    between atoms: _38  and  _41
REMARK   18  A    between atoms: _41  and  _42
REMARK   19  A    between atoms: _45  and  _47
REMARK   20  A    between atoms: _47  and  _48
REMARK   21  A    between atoms: _47  and  _50
REMARK   22  A    between atoms: _50  and  _51
REMARK   23  A    between atoms: _54  and  _56
REMARK   24  A    between atoms: _56  and  _57
REMARK   25  A    between atoms: _59  and  _61
REMARK   26  A    between atoms: _61  and  _62
REMARK   27  A    between atoms: _65  and  _67
REMARK   28  A    between atoms: _67  and  _68
REMARK   29  A    between atoms: _67  and  _70
REMARK   30  A    between atoms: _70  and  _71
REMARK   31  A    between atoms: _74  and  _76
REMARK   32  A    between atoms: _76  and  _77
REMARK   33  A    between atoms: _76  and  _79
REMARK   34  A    between atoms: _79  and  _80
REMARK   35  A    between atoms: _83  and  _85
REMARK   36  A    between atoms: _85  and  _86
REMARK   37  A    between atoms: _85  and  _88
REMARK   38  A    between atoms: _88  and  _89
REMARK   39  A    between atoms: _92  and  _94
REMARK   40  A    between atoms: _94  and  _95
REMARK   41  A    between atoms: _94  and  _97
REMARK   42  A    between atoms: _100  and  _102
REMARK   43  A    between atoms: _102  and  _103
REMARK   44  A    between atoms: _102  and  _105
REMARK   45  A    between atoms: _105  and  _106
REMARK   46  A    between atoms: _109  and  _111
REMARK   47  A    between atoms: _111  and  _112
REMARK   48  A    between atoms: _114  and  _116
REMARK   49  A    between atoms: _116  and  _117
REMARK   50  A    between atoms: _119  and  _121
REMARK   51  A    between atoms: _121  and  _122
REMARK   52  A    between atoms: _121  and  _124
REMARK   53  A    between atoms: _124  and  _125
REMARK   54  A    between atoms: _128  and  _130
REMARK   55  A    between atoms: _130  and  _131
REMARK   56  A    between atoms: _133  and  _135
REMARK   57  A    between atoms: _135  and  _136
REMARK   58  A    between atoms: _138  and  _140
REMARK   59  A    between atoms: _140  and  _141
REMARK   60  A    between atoms: _140  and  _143
REMARK   61  A    between atoms: _143  and  _144
REMARK   62  A    between atoms: _150  and  _152
REMARK   63  A    between atoms: _152  and  _153
REMARK   64  A    between atoms: _152  and  _155
REMARK   65  A    between atoms: _155  and  _156
REMARK   66  A    between atoms: _159  and  _161
REMARK   67  A    between atoms: _161  and  _162
REMARK   68  A    between atoms: _161  and  _164
REMARK   69  A    between atoms: _164  and  _165
REMARK   70  A    between atoms: _169  and  _170
REMARK   71  A    between atoms: _175  and  _177
REMARK   72  A    between atoms: _177  and  _178
REMARK   73  A    between atoms: _177  and  _180
REMARK   74  A    between atoms: _180  and  _181
REMARK   75  A    between atoms: _185  and  _186
REMARK   76  A    between atoms: _191  and  _193
REMARK   77  A    between atoms: _193  and  _194
REMARK   78  A    between atoms: _193  and  _196
REMARK   79  A    between atoms: _199  and  _201
REMARK   80  A    between atoms: _201  and  _202
REMARK   81  A    between atoms: _201  and  _204
REMARK   82  A    between atoms: _204  and  _205
REMARK   83  A    between atoms: _210  and  _212
REMARK   84  A    between atoms: _212  and  _213
REMARK   85  A    between atoms: _212  and  _215
REMARK   86  A    between atoms: _215  and  _216
REMARK   87  A    between atoms: _219  and  _221
REMARK   88  A    between atoms: _221  and  _222
REMARK   89  A    between atoms: _221  and  _224
REMARK   90  A    between atoms: _224  and  _225
REMARK   91  A    between atoms: _228  and  _230
REMARK   92  A    between atoms: _230  and  _231
REMARK   93  A    between atoms: _233  and  _235
REMARK   94  A    between atoms: _235  and  _236
REMARK   95  A    between atoms: _235  and  _238
REMARK   96  A    between atoms: _238  and  _239
REMARK   97  A    between atoms: _239  and  _240
REMARK   98  A    between atoms: _240  and  _241
REMARK   99  A    between atoms: _250  and  _252
REMARK  100  A    between atoms: _252  and  _253
REMARK  101  A    between atoms: _252  and  _255
REMARK  102  A    between atoms: _255  and  _256
REMARK  103  A    between atoms: _261  and  _263
REMARK  104  A    between atoms: _263  and  _264
REMARK  105  A    between atoms: _263  and  _266
REMARK  106  A    between atoms: _266  and  _267
REMARK  107  A    between atoms: _267  and  _268
REMARK  108  A    between atoms: _268  and  _269
REMARK  109  A    between atoms: _278  and  _280
REMARK  110  A    between atoms: _280  and  _281
REMARK  111  A    between atoms: _280  and  _283
REMARK  112  A    between atoms: _283  and  _284
REMARK  113  A    between atoms: _287  and  _289
REMARK  114  A    between atoms: _289  and  _290
REMARK  115  A    between atoms: _289  and  _292
REMARK  116  A    between atoms: _292  and  _293
REMARK  117  A    between atoms: _296  and  _298
REMARK  118  A    between atoms: _298  and  _299
REMARK  119  A    between atoms: _298  and  _301
REMARK  120  A    between atoms: _301  and  _302
REMARK  121  A    between atoms: _305  and  _307
REMARK  122  A    between atoms: _307  and  _308
REMARK  123  A    between atoms: _307  and  _310
REMARK  124  A    between atoms: _310  and  _311
REMARK  125  A    between atoms: _314  and  _316
REMARK  126  A    between atoms: _316  and  _317
REMARK  127  A    between atoms: _319  and  _321
REMARK  128  A    between atoms: _321  and  _322
REMARK  129  A    between atoms: _325  and  _327
REMARK  130  A    between atoms: _327  and  _328
REMARK  131  A    between atoms: _327  and  _330
REMARK  132  A    between atoms: _330  and  _331
REMARK  133  A    between atoms: _334  and  _336
REMARK  134  A    between atoms: _336  and  _337
REMARK  135  A    between atoms: _336  and  _339
REMARK  136  A    between atoms: _339  and  _340
REMARK  137  A    between atoms: _343  and  _345
REMARK  138  A    between atoms: _345  and  _346
REMARK  139  A    between atoms: _345  and  _348
REMARK  140  A    between atoms: _348  and  _349
REMARK  141  A    between atoms: _352  and  _354
REMARK  142  A    between atoms: _354  and  _355
REMARK  143  A    between atoms: _354  and  _357
REMARK  144  A    between atoms: _360  and  _362
REMARK  145  A    between atoms: _362  and  _363
REMARK  146  A    between atoms: _362  and  _365
REMARK  147  A    between atoms: _365  and  _366
REMARK  148  A    between atoms: _366  and  _367
REMARK  149  A    between atoms: _367  and  _368
REMARK  150  A    between atoms: _368  and  _369
REMARK  151  A    between atoms: _373  and  _375
REMARK  152  A    between atoms: _375  and  _376
REMARK  153  A    between atoms: _375  and  _378
REMARK  154  A    between atoms: _378  and  _379
REMARK  155  A    between atoms: _379  and  _380
REMARK  156  A    between atoms: _382  and  _384
REMARK  157  A    between atoms: _384  and  _385
REMARK  158  A    between atoms: _384  and  _387
REMARK  159  A    between atoms: _387  and  _388
REMARK  160  A    between atoms: _391  and  _393
REMARK  161  A    between atoms: _393  and  _394
REMARK  162  A    between atoms: _396  and  _398
REMARK  163  A    between atoms: _398  and  _399
REMARK  164  A    between atoms: _401  and  _403
REMARK  165  A    between atoms: _403  and  _404
REMARK  166  A    between atoms: _403  and  _406
REMARK  167  A    between atoms: _406  and  _407
REMARK  168  A    between atoms: _410  and  _412
REMARK  169  A    between atoms: _412  and  _413
REMARK  170  A    between atoms: _415  and  _417
REMARK  171  A    between atoms: _417  and  _418
REMARK  172  A    between atoms: _420  and  _422
REMARK  173  A    between atoms: _422  and  _423
REMARK  174  A    between atoms: _422  and  _425
REMARK  175  A    between atoms: _425  and  _426
REMARK  176  A    between atoms: _432  and  _434
REMARK  177  A    between atoms: _434  and  _435
REMARK  178  A    between atoms: _434  and  _437
REMARK  179  A    between atoms: _437  and  _438
REMARK  180  A    between atoms: _441  and  _443
REMARK  181  A    between atoms: _443  and  _444
REMARK  182  A    between atoms: _443  and  _446
REMARK  183  A    between atoms: _449  and  _451
REMARK  184  A    between atoms: _451  and  _452
REMARK  185  A    between atoms: _451  and  _454
REMARK  186  A    between atoms: _454  and  _455
REMARK  187  A    between atoms: _458  and  _460
REMARK  188  A    between atoms: _460  and  _461
REMARK  189  A    between atoms: _460  and  _463
REMARK  190  A    between atoms: _463  and  _464
REMARK  191  A    between atoms: _468  and  _469
REMARK  192  A    between atoms: _474  and  _476
REMARK  193  A    between atoms: _476  and  _477
REMARK  194  A    between atoms: _476  and  _479
REMARK  195  A    between atoms: _482  and  _484
REMARK  196  A    between atoms: _484  and  _485
REMARK  197  A    between atoms: _484  and  _487
REMARK  198  A    between atoms: _487  and  _488
REMARK  199  A    between atoms: _493  and  _495
REMARK  200  A    between atoms: _495  and  _496
REMARK  201  A    between atoms: _495  and  _498
REMARK  202  A    between atoms: _498  and  _499
REMARK  203  A    between atoms: _502  and  _504
REMARK  204  A    between atoms: _504  and  _505
REMARK  205  A    between atoms: _504  and  _507
REMARK  206  A    between atoms: _507  and  _508
REMARK  207  A    between atoms: _511  and  _513
REMARK  208  A    between atoms: _513  and  _514
REMARK  209  A    between atoms: _516  and  _518
REMARK  210  A    between atoms: _518  and  _519
REMARK  211  A    between atoms: _518  and  _521
REMARK  212  A    between atoms: _521  and  _522
REMARK  213  A    between atoms: _522  and  _523
REMARK  214  A    between atoms: _523  and  _524
REMARK  215  A    between atoms: _533  and  _535
REMARK  216  A    between atoms: _535  and  _536
REMARK  217  A    between atoms: _535  and  _538
REMARK  218  A    between atoms: _538  and  _539
REMARK                            x       y       z     vdW  Elec       q    Type
REMARK                         _______ _______ _______ _____ _____    ______ ____
ROOT
ATOM      1  O   HOH     1      26.279  18.837  13.327  0.00  0.00    +0.000 OA
ENDROOT
TORSDOF 0
REMARK  Name = ../refined-set-2016/2qhy/2qhy_pocket.pdb
REMARK  218 active torsions:
REMARK  status: ('A' for Active; 'I' for Inactive)
REMARK    1  A    between atoms: _1  and  _3
REMARK    2  A    between atoms: _3  and  _4
REMARK    3  A    between atoms: _3  and  _6
REMARK    4  A    between atoms: _6  and  _7
REMARK    5  A    between atoms: _7  and  _8
REMARK    6  A    between atoms: _8  and  _9
REMARK    7  A    between atoms: _18  and  _20
REMARK    8  A    between atoms: _20  and  _21
REMARK    9  A    between atoms: _20  and  _23
REMARK   10  A    between atoms: _23  and  _24
REMARK   11  A    between atoms: _27  and  _29
REMARK   12  A    between atoms: _29  and  _30
REMARK   13  A    between atoms: _29  and  _32
REMARK   14  A    between atoms: _32  and  _33
REMARK   15  A    between atoms: _36  and  _38
REMARK   16  A    between atoms: _38  and  _39
REMARK   17  A    between atoms: _38  and  _41
REMARK   18  A    between atoms: _41  and  _42
REMARK   19  A    between atoms: _45  and  _47
REMARK   20  A    between atoms: _47  and  _48
REMARK   21  A    between atoms: _47  and  _50
REMARK   22  A    between atoms: _50  and  _51
REMARK   23  A    between atoms: _54  and  _56
REMARK   24  A    between atoms: _56  and  _57
REMARK   25  A    between atoms: _59  and  _61
REMARK   26  A    between atoms: _61  and  _62
REMARK   27  A    between atoms: _65  and  _67
REMARK   28  A    between atoms: _67  and  _68
REMARK   29  A    between atoms: _67  and  _70
REMARK   30  A    between atoms: _70  and  _71
REMARK   31  A    between atoms: _74  and  _76
REMARK   32  A    between atoms: _76  and  _77
REMARK   33  A    between atoms: _76  and  _79
REMARK   34  A    between atoms: _79  and  _80
REMARK   35  A    between atoms: _83  and  _85
REMARK   36  A    between atoms: _85  and  _86
REMARK   37  A    between atoms: _85  and  _88
REMARK   38  A    between atoms: _88  and  _89
REMARK   39  A    between atoms: _92  and  _94
REMARK   40  A    between atoms: _94  and  _95
REMARK   41  A    between atoms: _94  and  _97
REMARK   42  A    between atoms: _100  and  _102
REMARK   43  A    between atoms: _102  and  _103
REMARK   44  A    between atoms: _102  and  _105
REMARK   45  A    between atoms: _105  and  _106
REMARK   46  A    between atoms: _109  and  _111
REMARK   47  A    between atoms: _111  and  _112
REMARK   48  A    between atoms: _114  and  _116
REMARK   49  A    between atoms: _116  and  _117
REMARK   50  A    between atoms: _119  and  _121
REMARK   51  A    between atoms: _121  and  _122
REMARK   52  A    between atoms: _121  and  _124
REMARK   53  A    between atoms: _124  and  _125
REMARK   54  A    between atoms: _128  and  _130
REMARK   55  A    between atoms: _130  and  _131
REMARK   56  A    between atoms: _133  and  _135
REMARK   57  A    between atoms: _135  and  _136
REMARK   58  A    between atoms: _138  and  _140
REMARK   59  A    between atoms: _140  and  _141
REMARK   60  A    between atoms: _140  and  _143
REMARK   61  A    between atoms: _143  and  _144
REMARK   62  A    between atoms: _150  and  _152
REMARK   63  A    between atoms: _152  and  _153
REMARK   64  A    between atoms: _152  and  _155
REMARK   65  A    between atoms: _155  and  _156
REMARK   66  A    between atoms: _159  and  _161
REMARK   67  A    between atoms: _161  and  _162
REMARK   68  A    between atoms: _161  and  _164
REMARK   69  A    between atoms: _164  and  _165
REMARK   70  A    between atoms: _169  and  _170
REMARK   71  A    between atoms: _175  and  _177
REMARK   72  A    between atoms: _177  and  _178
REMARK   73  A    between atoms: _177  and  _180
REMARK   74  A    between atoms: _180  and  _181
REMARK   75  A    between atoms: _185  and  _186
REMARK   76  A    between atoms: _191  and  _193
REMARK   77  A    between atoms: _193  and  _194
REMARK   78  A    between atoms: _193  and  _196
REMARK   79  A    between atoms: _199  and  _201
REMARK   80  A    between atoms: _201  and  _202
REMARK   81  A    between atoms: _201  and  _204
REMARK   82  A    between atoms: _204  and  _205
REMARK   83  A    between atoms: _210  and  _212
REMARK   84  A    between atoms: _212  and  _213
REMARK   85  A    between atoms: _212  and  _215
REMARK   86  A    between atoms: _215  and  _216
REMARK   87  A    between atoms: _219  and  _221
REMARK   88  A    between atoms: _221  and  _222
REMARK   89  A    between atoms: _221  and  _224
REMARK   90  A    between atoms: _224  and  _225
REMARK   91  A    between atoms: _228  and  _230
REMARK   92  A    between atoms: _230  and  _231
REMARK   93  A    between atoms: _233  and  _235
REMARK   94  A    between atoms: _235  and  _236
REMARK   95  A    between atoms: _235  and  _238
REMARK   96  A    between atoms: _238  and  _239
REMARK   97  A    between atoms: _239  and  _240
REMARK   98  A    between atoms: _240  and  _241
REMARK   99  A    between atoms: _250  and  _252
REMARK  100  A    between atoms: _252  and  _253
REMARK  101  A    between atoms: _252  and  _255
REMARK  102  A    between atoms: _255  and  _256
REMARK  103  A    between atoms: _261  and  _263
REMARK  104  A    between atoms: _263  and  _264
REMARK  105  A    between atoms: _263  and  _266
REMARK  106  A    between atoms: _266  and  _267
REMARK  107  A    between atoms: _267  and  _268
REMARK  108  A    between atoms: _268  and  _269
REMARK  109  A    between atoms: _278  and  _280
REMARK  110  A    between atoms: _280  and  _281
REMARK  111  A    between atoms: _280  and  _283
REMARK  112  A    between atoms: _283  and  _284
REMARK  113  A    between atoms: _287  and  _289
REMARK  114  A    between atoms: _289  and  _290
REMARK  115  A    between atoms: _289  and  _292
REMARK  116  A    between atoms: _292  and  _293
REMARK  117  A    between atoms: _296  and  _298
REMARK  118  A    between atoms: _298  and  _299
REMARK  119  A    between atoms: _298  and  _301
REMARK  120  A    between atoms: _301  and  _302
REMARK  121  A    between atoms: _305  and  _307
REMARK  122  A    between atoms: _307  and  _308
REMARK  123  A    between atoms: _307  and  _310
REMARK  124  A    between atoms: _310  and  _311
REMARK  125  A    between atoms: _314  and  _316
REMARK  126  A    between atoms: _316  and  _317
REMARK  127  A    between atoms: _319  and  _321
REMARK  128  A    between atoms: _321  and  _322
REMARK  129  A    between atoms: _325  and  _327
REMARK  130  A    between atoms: _327  and  _328
REMARK  131  A    between atoms: _327  and  _330
REMARK  132  A    between atoms: _330  and  _331
REMARK  133  A    between atoms: _334  and  _336
REMARK  134  A    between atoms: _336  and  _337
REMARK  135  A    between atoms: _336  and  _339
REMARK  136  A    between atoms: _339  and  _340
REMARK  137  A    between atoms: _343  and  _345
REMARK  138  A    between atoms: _345  and  _346
REMARK  139  A    between atoms: _345  and  _348
REMARK  140  A    between atoms: _348  and  _349
REMARK  141  A    between atoms: _352  and  _354
REMARK  142  A    between atoms: _354  and  _355
REMARK  143  A    between atoms: _354  and  _357
REMARK  144  A    between atoms: _360  and  _362
REMARK  145  A    between atoms: _362  and  _363
REMARK  146  A    between atoms: _362  and  _365
REMARK  147  A    between atoms: _365  and  _366
REMARK  148  A    between atoms: _366  and  _367
REMARK  149  A    between atoms: _367  and  _368
REMARK  150  A    between atoms: _368  and  _369
REMARK  151  A    between atoms: _373  and  _375
REMARK  152  A    between atoms: _375  and  _376
REMARK  153  A    between atoms: _375  and  _378
REMARK  154  A    between atoms: _378  and  _379
REMARK  155  A    between atoms: _379  and  _380
REMARK  156  A    between atoms: _382  and  _384
REMARK  157  A    between atoms: _384  and  _385
REMARK  158  A    between atoms: _384  and  _387
REMARK  159  A    between atoms: _387  and  _388
REMARK  160  A    between atoms: _391  and  _393
REMARK  161  A    between atoms: _393  and  _394
REMARK  162  A    between atoms: _396  and  _398
REMARK  163  A    between atoms: _398  and  _399
REMARK  164  A    between atoms: _401  and  _403
REMARK  165  A    between atoms: _403  and  _404
REMARK  166  A    between atoms: _403  and  _406
REMARK  167  A    between atoms: _406  and  _407
REMARK  168  A    between atoms: _410  and  _412
REMARK  169  A    between atoms: _412  and  _413
REMARK  170  A    between atoms: _415  and  _417
REMARK  171  A    between atoms: _417  and  _418
REMARK  172  A    between atoms: _420  and  _422
REMARK  173  A    between atoms: _422  and  _423
REMARK  174  A    between atoms: _422  and  _425
REMARK  175  A    between atoms: _425  and  _426
REMARK  176  A    between atoms: _432  and  _434
REMARK  177  A    between atoms: _434  and  _435
REMARK  178  A    between atoms: _434  and  _437
REMARK  179  A    between atoms: _437  and  _438
REMARK  180  A    between atoms: _441  and  _443
REMARK  181  A    between atoms: _443  and  _444
REMARK  182  A    between atoms: _443  and  _446
REMARK  183  A    between atoms: _449  and  _451
REMARK  184  A    between atoms: _451  and  _452
REMARK  185  A    between atoms: _451  and  _454
REMARK  186  A    between atoms: _454  and  _455
REMARK  187  A    between atoms: _458  and  _460
REMARK  188  A    between atoms: _460  and  _461
REMARK  189  A    between atoms: _460  and  _463
REMARK  190  A    between atoms: _463  and  _464
REMARK  191  A    between atoms: _468  and  _469
REMARK  192  A    between atoms: _474  and  _476
REMARK  193  A    between atoms: _476  and  _477
REMARK  194  A    between atoms: _476  and  _479
REMARK  195  A    between atoms: _482  and  _484
REMARK  196  A    between atoms: _484  and  _485
REMARK  197  A    between atoms: _484  and  _487
REMARK  198  A    between atoms: _487  and  _488
REMARK  199  A    between atoms: _493  and  _495
REMARK  200  A    between atoms: _495  and  _496
REMARK  201  A    between atoms: _495  and  _498
REMARK  202  A    between atoms: _498  and  _499
REMARK  203  A    between atoms: _502  and  _504
REMARK  204  A    between atoms: _504  and  _505
REMARK  205  A    between atoms: _504  and  _507
REMARK  206  A    between atoms: _507  and  _508
REMARK  207  A    between atoms: _511  and  _513
REMARK  208  A    between atoms: _513  and  _514
REMARK  209  A    between atoms: _516  and  _518
REMARK  210  A    between atoms: _518  and  _519
REMARK  211  A    between atoms: _518  and  _521
REMARK  212  A    between atoms: _521  and  _522
REMARK  213  A    between atoms: _522  and  _523
REMARK  214  A    between atoms: _523  and  _524
REMARK  215  A    between atoms: _533  and  _535
REMARK  216  A    between atoms: _535  and  _536
REMARK  217  A    between atoms: _535  and  _538
REMARK  218  A    between atoms: _538  and  _539
REMARK                            x       y       z     vdW  Elec       q    Type
REMARK                         _______ _______ _______ _____ _____    ______ ____
ROOT
ATOM      1  O   HOH     1      24.119  22.473   8.343  0.00  0.00    +0.000 OA
ENDROOT
TORSDOF 0
REMARK  Name = ../refined-set-2016/2qhy/2qhy_pocket.pdb
REMARK  218 active torsions:
REMARK  status: ('A' for Active; 'I' for Inactive)
REMARK    1  A    between atoms: _1  and  _3
REMARK    2  A    between atoms: _3  and  _4
REMARK    3  A    between atoms: _3  and  _6
REMARK    4  A    between atoms: _6  and  _7
REMARK    5  A    between atoms: _7  and  _8
REMARK    6  A    between atoms: _8  and  _9
REMARK    7  A    between atoms: _18  and  _20
REMARK    8  A    between atoms: _20  and  _21
REMARK    9  A    between atoms: _20  and  _23
REMARK   10  A    between atoms: _23  and  _24
REMARK   11  A    between atoms: _27  and  _29
REMARK   12  A    between atoms: _29  and  _30
REMARK   13  A    between atoms: _29  and  _32
REMARK   14  A    between atoms: _32  and  _33
REMARK   15  A    between atoms: _36  and  _38
REMARK   16  A    between atoms: _38  and  _39
REMARK   17  A    between atoms: _38  and  _41
REMARK   18  A    between atoms: _41  and  _42
REMARK   19  A    between atoms: _45  and  _47
REMARK   20  A    between atoms: _47  and  _48
REMARK   21  A    between atoms: _47  and  _50
REMARK   22  A    between atoms: _50  and  _51
REMARK   23  A    between atoms: _54  and  _56
REMARK   24  A    between atoms: _56  and  _57
REMARK   25  A    between atoms: _59  and  _61
REMARK   26  A    between atoms: _61  and  _62
REMARK   27  A    between atoms: _65  and  _67
REMARK   28  A    between atoms: _67  and  _68
REMARK   29  A    between atoms: _67  and  _70
REMARK   30  A    between atoms: _70  and  _71
REMARK   31  A    between atoms: _74  and  _76
REMARK   32  A    between atoms: _76  and  _77
REMARK   33  A    between atoms: _76  and  _79
REMARK   34  A    between atoms: _79  and  _80
REMARK   35  A    between atoms: _83  and  _85
REMARK   36  A    between atoms: _85  and  _86
REMARK   37  A    between atoms: _85  and  _88
REMARK   38  A    between atoms: _88  and  _89
REMARK   39  A    between atoms: _92  and  _94
REMARK   40  A    between atoms: _94  and  _95
REMARK   41  A    between atoms: _94  and  _97
REMARK   42  A    between atoms: _100  and  _102
REMARK   43  A    between atoms: _102  and  _103
REMARK   44  A    between atoms: _102  and  _105
REMARK   45  A    between atoms: _105  and  _106
REMARK   46  A    between atoms: _109  and  _111
REMARK   47  A    between atoms: _111  and  _112
REMARK   48  A    between atoms: _114  and  _116
REMARK   49  A    between atoms: _116  and  _117
REMARK   50  A    between atoms: _119  and  _121
REMARK   51  A    between atoms: _121  and  _122
REMARK   52  A    between atoms: _121  and  _124
REMARK   53  A    between atoms: _124  and  _125
REMARK   54  A    between atoms: _128  and  _130
REMARK   55  A    between atoms: _130  and  _131
REMARK   56  A    between atoms: _133  and  _135
REMARK   57  A    between atoms: _135  and  _136
REMARK   58  A    between atoms: _138  and  _140
REMARK   59  A    between atoms: _140  and  _141
REMARK   60  A    between atoms: _140  and  _143
REMARK   61  A    between atoms: _143  and  _144
REMARK   62  A    between atoms: _150  and  _152
REMARK   63  A    between atoms: _152  and  _153
REMARK   64  A    between atoms: _152  and  _155
REMARK   65  A    between atoms: _155  and  _156
REMARK   66  A    between atoms: _159  and  _161
REMARK   67  A    between atoms: _161  and  _162
REMARK   68  A    between atoms: _161  and  _164
REMARK   69  A    between atoms: _164  and  _165
REMARK   70  A    between atoms: _169  and  _170
REMARK   71  A    between atoms: _175  and  _177
REMARK   72  A    between atoms: _177  and  _178
REMARK   73  A    between atoms: _177  and  _180
REMARK   74  A    between atoms: _180  and  _181
REMARK   75  A    between atoms: _185  and  _186
REMARK   76  A    between atoms: _191  and  _193
REMARK   77  A    between atoms: _193  and  _194
REMARK   78  A    between atoms: _193  and  _196
REMARK   79  A    between atoms: _199  and  _201
REMARK   80  A    between atoms: _201  and  _202
REMARK   81  A    between atoms: _201  and  _204
REMARK   82  A    between atoms: _204  and  _205
REMARK   83  A    between atoms: _210  and  _212
REMARK   84  A    between atoms: _212  and  _213
REMARK   85  A    between atoms: _212  and  _215
REMARK   86  A    between atoms: _215  and  _216
REMARK   87  A    between atoms: _219  and  _221
REMARK   88  A    between atoms: _221  and  _222
REMARK   89  A    between atoms: _221  and  _224
REMARK   90  A    between atoms: _224  and  _225
REMARK   91  A    between atoms: _228  and  _230
REMARK   92  A    between atoms: _230  and  _231
REMARK   93  A    between atoms: _233  and  _235
REMARK   94  A    between atoms: _235  and  _236
REMARK   95  A    between atoms: _235  and  _238
REMARK   96  A    between atoms: _238  and  _239
REMARK   97  A    between atoms: _239  and  _240
REMARK   98  A    between atoms: _240  and  _241
REMARK   99  A    between atoms: _250  and  _252
REMARK  100  A    between atoms: _252  and  _253
REMARK  101  A    between atoms: _252  and  _255
REMARK  102  A    between atoms: _255  and  _256
REMARK  103  A    between atoms: _261  and  _263
REMARK  104  A    between atoms: _263  and  _264
REMARK  105  A    between atoms: _263  and  _266
REMARK  106  A    between atoms: _266  and  _267
REMARK  107  A    between atoms: _267  and  _268
REMARK  108  A    between atoms: _268  and  _269
REMARK  109  A    between atoms: _278  and  _280
REMARK  110  A    between atoms: _280  and  _281
REMARK  111  A    between atoms: _280  and  _283
REMARK  112  A    between atoms: _283  and  _284
REMARK  113  A    between atoms: _287  and  _289
REMARK  114  A    between atoms: _289  and  _290
REMARK  115  A    between atoms: _289  and  _292
REMARK  116  A    between atoms: _292  and  _293
REMARK  117  A    between atoms: _296  and  _298
REMARK  118  A    between atoms: _298  and  _299
REMARK  119  A    between atoms: _298  and  _301
REMARK  120  A    between atoms: _301  and  _302
REMARK  121  A    between atoms: _305  and  _307
REMARK  122  A    between atoms: _307  and  _308
REMARK  123  A    between atoms: _307  and  _310
REMARK  124  A    between atoms: _310  and  _311
REMARK  125  A    between atoms: _314  and  _316
REMARK  126  A    between atoms: _316  and  _317
REMARK  127  A    between atoms: _319  and  _321
REMARK  128  A    between atoms: _321  and  _322
REMARK  129  A    between atoms: _325  and  _327
REMARK  130  A    between atoms: _327  and  _328
REMARK  131  A    between atoms: _327  and  _330
REMARK  132  A    between atoms: _330  and  _331
REMARK  133  A    between atoms: _334  and  _336
REMARK  134  A    between atoms: _336  and  _337
REMARK  135  A    between atoms: _336  and  _339
REMARK  136  A    between atoms: _339  and  _340
REMARK  137  A    between atoms: _343  and  _345
REMARK  138  A    between atoms: _345  and  _346
REMARK  139  A    between atoms: _345  and  _348
REMARK  140  A    between atoms: _348  and  _349
REMARK  141  A    between atoms: _352  and  _354
REMARK  142  A    between atoms: _354  and  _355
REMARK  143  A    between atoms: _354  and  _357
REMARK  144  A    between atoms: _360  and  _362
REMARK  145  A    between atoms: _362  and  _363
REMARK  146  A    between atoms: _362  and  _365
REMARK  147  A    between atoms: _365  and  _366
REMARK  148  A    between atoms: _366  and  _367
REMARK  149  A    between atoms: _367  and  _368
REMARK  150  A    between atoms: _368  and  _369
REMARK  151  A    between atoms: _373  and  _375
REMARK  152  A    between atoms: _375  and  _376
REMARK  153  A    between atoms: _375  and  _378
REMARK  154  A    between atoms: _378  and  _379
REMARK  155  A    between atoms: _379  and  _380
REMARK  156  A    between atoms: _382  and  _384
REMARK  157  A    between atoms: _384  and  _385
REMARK  158  A    between atoms: _384  and  _387
REMARK  159  A    between atoms: _387  and  _388
REMARK  160  A    between atoms: _391  and  _393
REMARK  161  A    between atoms: _393  and  _394
REMARK  162  A    between atoms: _396  and  _398
REMARK  163  A    between atoms: _398  and  _399
REMARK  164  A    between atoms: _401  and  _403
REMARK  165  A    between atoms: _403  and  _404
REMARK  166  A    between atoms: _403  and  _406
REMARK  167  A    between atoms: _406  and  _407
REMARK  168  A    between atoms: _410  and  _412
REMARK  169  A    between atoms: _412  and  _413
REMARK  170  A    between atoms: _415  and  _417
REMARK  171  A    between atoms: _417  and  _418
REMARK  172  A    between atoms: _420  and  _422
REMARK  173  A    between atoms: _422  and  _423
REMARK  174  A    between atoms: _422  and  _425
REMARK  175  A    between atoms: _425  and  _426
REMARK  176  A    between atoms: _432  and  _434
REMARK  177  A    between atoms: _434  and  _435
REMARK  178  A    between atoms: _434  and  _437
REMARK  179  A    between atoms: _437  and  _438
REMARK  180  A    between atoms: _441  and  _443
REMARK  181  A    between atoms: _443  and  _444
REMARK  182  A    between atoms: _443  and  _446
REMARK  183  A    between atoms: _449  and  _451
REMARK  184  A    between atoms: _451  and  _452
REMARK  185  A    between atoms: _451  and  _454
REMARK  186  A    between atoms: _454  and  _455
REMARK  187  A    between atoms: _458  and  _460
REMARK  188  A    between atoms: _460  and  _461
REMARK  189  A    between atoms: _460  and  _463
REMARK  190  A    between atoms: _463  and  _464
REMARK  191  A    between atoms: _468  and  _469
REMARK  192  A    between atoms: _474  and  _476
REMARK  193  A    between atoms: _476  and  _477
REMARK  194  A    between atoms: _476  and  _479
REMARK  195  A    between atoms: _482  and  _484
REMARK  196  A    between atoms: _484  and  _485
REMARK  197  A    between atoms: _484  and  _487
REMARK  198  A    between atoms: _487  and  _488
REMARK  199  A    between atoms: _493  and  _495
REMARK  200  A    between atoms: _495  and  _496
REMARK  201  A    between atoms: _495  and  _498
REMARK  202  A    between atoms: _498  and  _499
REMARK  203  A    between atoms: _502  and  _504
REMARK  204  A    between atoms: _504  and  _505
REMARK  205  A    between atoms: _504  and  _507
REMARK  206  A    between atoms: _507  and  _508
REMARK  207  A    between atoms: _511  and  _513
REMARK  208  A    between atoms: _513  and  _514
REMARK  209  A    between atoms: _516  and  _518
REMARK  210  A    between atoms: _518  and  _519
REMARK  211  A    between atoms: _518  and  _521
REMARK  212  A    between atoms: _521  and  _522
REMARK  213  A    between atoms: _522  and  _523
REMARK  214  A    between atoms: _523  and  _524
REMARK  215  A    between atoms: _533  and  _535
REMARK  216  A    between atoms: _535  and  _536
REMARK  217  A    between atoms: _535  and  _538
REMARK  218  A    between atoms: _538  and  _539
REMARK                            x       y       z     vdW  Elec       q    Type
REMARK                         _______ _______ _______ _____ _____    ______ ____
ROOT
ATOM      1  O   HOH     1      26.819  19.922   9.547  0.00  0.00    +0.000 OA
ENDROOT
TORSDOF 0
REMARK  Name = ../refined-set-2016/2qhy/2qhy_pocket.pdb
REMARK  218 active torsions:
REMARK  status: ('A' for Active; 'I' for Inactive)
REMARK    1  A    between atoms: _1  and  _3
REMARK    2  A    between atoms: _3  and  _4
REMARK    3  A    between atoms: _3  and  _6
REMARK    4  A    between atoms: _6  and  _7
REMARK    5  A    between atoms: _7  and  _8
REMARK    6  A    between atoms: _8  and  _9
REMARK    7  A    between atoms: _18  and  _20
REMARK    8  A    between atoms: _20  and  _21
REMARK    9  A    between atoms: _20  and  _23
REMARK   10  A    between atoms: _23  and  _24
REMARK   11  A    between atoms: _27  and  _29
REMARK   12  A    between atoms: _29  and  _30
REMARK   13  A    between atoms: _29  and  _32
REMARK   14  A    between atoms: _32  and  _33
REMARK   15  A    between atoms: _36  and  _38
REMARK   16  A    between atoms: _38  and  _39
REMARK   17  A    between atoms: _38  and  _41
REMARK   18  A    between atoms: _41  and  _42
REMARK   19  A    between atoms: _45  and  _47
REMARK   20  A    between atoms: _47  and  _48
REMARK   21  A    between atoms: _47  and  _50
REMARK   22  A    between atoms: _50  and  _51
REMARK   23  A    between atoms: _54  and  _56
REMARK   24  A    between atoms: _56  and  _57
REMARK   25  A    between atoms: _59  and  _61
REMARK   26  A    between atoms: _61  and  _62
REMARK   27  A    between atoms: _65  and  _67
REMARK   28  A    between atoms: _67  and  _68
REMARK   29  A    between atoms: _67  and  _70
REMARK   30  A    between atoms: _70  and  _71
REMARK   31  A    between atoms: _74  and  _76
REMARK   32  A    between atoms: _76  and  _77
REMARK   33  A    between atoms: _76  and  _79
REMARK   34  A    between atoms: _79  and  _80
REMARK   35  A    between atoms: _83  and  _85
REMARK   36  A    between atoms: _85  and  _86
REMARK   37  A    between atoms: _85  and  _88
REMARK   38  A    between atoms: _88  and  _89
REMARK   39  A    between atoms: _92  and  _94
REMARK   40  A    between atoms: _94  and  _95
REMARK   41  A    between atoms: _94  and  _97
REMARK   42  A    between atoms: _100  and  _102
REMARK   43  A    between atoms: _102  and  _103
REMARK   44  A    between atoms: _102  and  _105
REMARK   45  A    between atoms: _105  and  _106
REMARK   46  A    between atoms: _109  and  _111
REMARK   47  A    between atoms: _111  and  _112
REMARK   48  A    between atoms: _114  and  _116
REMARK   49  A    between atoms: _116  and  _117
REMARK   50  A    between atoms: _119  and  _121
REMARK   51  A    between atoms: _121  and  _122
REMARK   52  A    between atoms: _121  and  _124
REMARK   53  A    between atoms: _124  and  _125
REMARK   54  A    between atoms: _128  and  _130
REMARK   55  A    between atoms: _130  and  _131
REMARK   56  A    between atoms: _133  and  _135
REMARK   57  A    between atoms: _135  and  _136
REMARK   58  A    between atoms: _138  and  _140
REMARK   59  A    between atoms: _140  and  _141
REMARK   60  A    between atoms: _140  and  _143
REMARK   61  A    between atoms: _143  and  _144
REMARK   62  A    between atoms: _150  and  _152
REMARK   63  A    between atoms: _152  and  _153
REMARK   64  A    between atoms: _152  and  _155
REMARK   65  A    between atoms: _155  and  _156
REMARK   66  A    between atoms: _159  and  _161
REMARK   67  A    between atoms: _161  and  _162
REMARK   68  A    between atoms: _161  and  _164
REMARK   69  A    between atoms: _164  and  _165
REMARK   70  A    between atoms: _169  and  _170
REMARK   71  A    between atoms: _175  and  _177
REMARK   72  A    between atoms: _177  and  _178
REMARK   73  A    between atoms: _177  and  _180
REMARK   74  A    between atoms: _180  and  _181
REMARK   75  A    between atoms: _185  and  _186
REMARK   76  A    between atoms: _191  and  _193
REMARK   77  A    between atoms: _193  and  _194
REMARK   78  A    between atoms: _193  and  _196
REMARK   79  A    between atoms: _199  and  _201
REMARK   80  A    between atoms: _201  and  _202
REMARK   81  A    between atoms: _201  and  _204
REMARK   82  A    between atoms: _204  and  _205
REMARK   83  A    between atoms: _210  and  _212
REMARK   84  A    between atoms: _212  and  _213
REMARK   85  A    between atoms: _212  and  _215
REMARK   86  A    between atoms: _215  and  _216
REMARK   87  A    between atoms: _219  and  _221
REMARK   88  A    between atoms: _221  and  _222
REMARK   89  A    between atoms: _221  and  _224
REMARK   90  A    between atoms: _224  and  _225
REMARK   91  A    between atoms: _228  and  _230
REMARK   92  A    between atoms: _230  and  _231
REMARK   93  A    between atoms: _233  and  _235
REMARK   94  A    between atoms: _235  and  _236
REMARK   95  A    between atoms: _235  and  _238
REMARK   96  A    between atoms: _238  and  _239
REMARK   97  A    between atoms: _239  and  _240
REMARK   98  A    between atoms: _240  and  _241
REMARK   99  A    between atoms: _250  and  _252
REMARK  100  A    between atoms: _252  and  _253
REMARK  101  A    between atoms: _252  and  _255
REMARK  102  A    between atoms: _255  and  _256
REMARK  103  A    between atoms: _261  and  _263
REMARK  104  A    between atoms: _263  and  _264
REMARK  105  A    between atoms: _263  and  _266
REMARK  106  A    between atoms: _266  and  _267
REMARK  107  A    between atoms: _267  and  _268
REMARK  108  A    between atoms: _268  and  _269
REMARK  109  A    between atoms: _278  and  _280
REMARK  110  A    between atoms: _280  and  _281
REMARK  111  A    between atoms: _280  and  _283
REMARK  112  A    between atoms: _283  and  _284
REMARK  113  A    between atoms: _287  and  _289
REMARK  114  A    between atoms: _289  and  _290
REMARK  115  A    between atoms: _289  and  _292
REMARK  116  A    between atoms: _292  and  _293
REMARK  117  A    between atoms: _296  and  _298
REMARK  118  A    between atoms: _298  and  _299
REMARK  119  A    between atoms: _298  and  _301
REMARK  120  A    between atoms: _301  and  _302
REMARK  121  A    between atoms: _305  and  _307
REMARK  122  A    between atoms: _307  and  _308
REMARK  123  A    between atoms: _307  and  _310
REMARK  124  A    between atoms: _310  and  _311
REMARK  125  A    between atoms: _314  and  _316
REMARK  126  A    between atoms: _316  and  _317
REMARK  127  A    between atoms: _319  and  _321
REMARK  128  A    between atoms: _321  and  _322
REMARK  129  A    between atoms: _325  and  _327
REMARK  130  A    between atoms: _327  and  _328
REMARK  131  A    between atoms: _327  and  _330
REMARK  132  A    between atoms: _330  and  _331
REMARK  133  A    between atoms: _334  and  _336
REMARK  134  A    between atoms: _336  and  _337
REMARK  135  A    between atoms: _336  and  _339
REMARK  136  A    between atoms: _339  and  _340
REMARK  137  A    between atoms: _343  and  _345
REMARK  138  A    between atoms: _345  and  _346
REMARK  139  A    between atoms: _345  and  _348
REMARK  140  A    between atoms: _348  and  _349
REMARK  141  A    between atoms: _352  and  _354
REMARK  142  A    between atoms: _354  and  _355
REMARK  143  A    between atoms: _354  and  _357
REMARK  144  A    between atoms: _360  and  _362
REMARK  145  A    between atoms: _362  and  _363
REMARK  146  A    between atoms: _362  and  _365
REMARK  147  A    between atoms: _365  and  _366
REMARK  148  A    between atoms: _366  and  _367
REMARK  149  A    between atoms: _367  and  _368
REMARK  150  A    between atoms: _368  and  _369
REMARK  151  A    between atoms: _373  and  _375
REMARK  152  A    between atoms: _375  and  _376
REMARK  153  A    between atoms: _375  and  _378
REMARK  154  A    between atoms: _378  and  _379
REMARK  155  A    between atoms: _379  and  _380
REMARK  156  A    between atoms: _382  and  _384
REMARK  157  A    between atoms: _384  and  _385
REMARK  158  A    between atoms: _384  and  _387
REMARK  159  A    between atoms: _387  and  _388
REMARK  160  A    between atoms: _391  and  _393
REMARK  161  A    between atoms: _393  and  _394
REMARK  162  A    between atoms: _396  and  _398
REMARK  163  A    between atoms: _398  and  _399
REMARK  164  A    between atoms: _401  and  _403
REMARK  165  A    between atoms: _403  and  _404
REMARK  166  A    between atoms: _403  and  _406
REMARK  167  A    between atoms: _406  and  _407
REMARK  168  A    between atoms: _410  and  _412
REMARK  169  A    between atoms: _412  and  _413
REMARK  170  A    between atoms: _415  and  _417
REMARK  171  A    between atoms: _417  and  _418
REMARK  172  A    between atoms: _420  and  _422
REMARK  173  A    between atoms: _422  and  _423
REMARK  174  A    between atoms: _422  and  _425
REMARK  175  A    between atoms: _425  and  _426
REMARK  176  A    between atoms: _432  and  _434
REMARK  177  A    between atoms: _434  and  _435
REMARK  178  A    between atoms: _434  and  _437
REMARK  179  A    between atoms: _437  and  _438
REMARK  180  A    between atoms: _441  and  _443
REMARK  181  A    between atoms: _443  and  _444
REMARK  182  A    between atoms: _443  and  _446
REMARK  183  A    between atoms: _449  and  _451
REMARK  184  A    between atoms: _451  and  _452
REMARK  185  A    between atoms: _451  and  _454
REMARK  186  A    between atoms: _454  and  _455
REMARK  187  A    between atoms: _458  and  _460
REMARK  188  A    between atoms: _460  and  _461
REMARK  189  A    between atoms: _460  and  _463
REMARK  190  A    between atoms: _463  and  _464
REMARK  191  A    between atoms: _468  and  _469
REMARK  192  A    between atoms: _474  and  _476
REMARK  193  A    between atoms: _476  and  _477
REMARK  194  A    between atoms: _476  and  _479
REMARK  195  A    between atoms: _482  and  _484
REMARK  196  A    between atoms: _484  and  _485
REMARK  197  A    between atoms: _484  and  _487
REMARK  198  A    between atoms: _487  and  _488
REMARK  199  A    between atoms: _493  and  _495
REMARK  200  A    between atoms: _495  and  _496
REMARK  201  A    between atoms: _495  and  _498
REMARK  202  A    between atoms: _498  and  _499
REMARK  203  A    between atoms: _502  and  _504
REMARK  204  A    between atoms: _504  and  _505
REMARK  205  A    between atoms: _504  and  _507
REMARK  206  A    between atoms: _507  and  _508
REMARK  207  A    between atoms: _511  and  _513
REMARK  208  A    between atoms: _513  and  _514
REMARK  209  A    between atoms: _516  and  _518
REMARK  210  A    between atoms: _518  and  _519
REMARK  211  A    between atoms: _518  and  _521
REMARK  212  A    between atoms: _521  and  _522
REMARK  213  A    between atoms: _522  and  _523
REMARK  214  A    between atoms: _523  and  _524
REMARK  215  A    between atoms: _533  and  _535
REMARK  216  A    between atoms: _535  and  _536
REMARK  217  A    between atoms: _535  and  _538
REMARK  218  A    between atoms: _538  and  _539
REMARK                            x       y       z     vdW  Elec       q    Type
REMARK                         _______ _______ _______ _____ _____    ______ ____
ROOT
ATOM      1  O   HOH     1      18.688  29.367   5.899  0.00  0.00    +0.000 OA
ENDROOT
TORSDOF 0
REMARK  Name = ../refined-set-2016/2qhy/2qhy_pocket.pdb
REMARK  218 active torsions:
REMARK  status: ('A' for Active; 'I' for Inactive)
REMARK    1  A    between atoms: _1  and  _3
REMARK    2  A    between atoms: _3  and  _4
REMARK    3  A    between atoms: _3  and  _6
REMARK    4  A    between atoms: _6  and  _7
REMARK    5  A    between atoms: _7  and  _8
REMARK    6  A    between atoms: _8  and  _9
REMARK    7  A    between atoms: _18  and  _20
REMARK    8  A    between atoms: _20  and  _21
REMARK    9  A    between atoms: _20  and  _23
REMARK   10  A    between atoms: _23  and  _24
REMARK   11  A    between atoms: _27  and  _29
REMARK   12  A    between atoms: _29  and  _30
REMARK   13  A    between atoms: _29  and  _32
REMARK   14  A    between atoms: _32  and  _33
REMARK   15  A    between atoms: _36  and  _38
REMARK   16  A    between atoms: _38  and  _39
REMARK   17  A    between atoms: _38  and  _41
REMARK   18  A    between atoms: _41  and  _42
REMARK   19  A    between atoms: _45  and  _47
REMARK   20  A    between atoms: _47  and  _48
REMARK   21  A    between atoms: _47  and  _50
REMARK   22  A    between atoms: _50  and  _51
REMARK   23  A    between atoms: _54  and  _56
REMARK   24  A    between atoms: _56  and  _57
REMARK   25  A    between atoms: _59  and  _61
REMARK   26  A    between atoms: _61  and  _62
REMARK   27  A    between atoms: _65  and  _67
REMARK   28  A    between atoms: _67  and  _68
REMARK   29  A    between atoms: _67  and  _70
REMARK   30  A    between atoms: _70  and  _71
REMARK   31  A    between atoms: _74  and  _76
REMARK   32  A    between atoms: _76  and  _77
REMARK   33  A    between atoms: _76  and  _79
REMARK   34  A    between atoms: _79  and  _80
REMARK   35  A    between atoms: _83  and  _85
REMARK   36  A    between atoms: _85  and  _86
REMARK   37  A    between atoms: _85  and  _88
REMARK   38  A    between atoms: _88  and  _89
REMARK   39  A    between atoms: _92  and  _94
REMARK   40  A    between atoms: _94  and  _95
REMARK   41  A    between atoms: _94  and  _97
REMARK   42  A    between atoms: _100  and  _102
REMARK   43  A    between atoms: _102  and  _103
REMARK   44  A    between atoms: _102  and  _105
REMARK   45  A    between atoms: _105  and  _106
REMARK   46  A    between atoms: _109  and  _111
REMARK   47  A    between atoms: _111  and  _112
REMARK   48  A    between atoms: _114  and  _116
REMARK   49  A    between atoms: _116  and  _117
REMARK   50  A    between atoms: _119  and  _121
REMARK   51  A    between atoms: _121  and  _122
REMARK   52  A    between atoms: _121  and  _124
REMARK   53  A    between atoms: _124  and  _125
REMARK   54  A    between atoms: _128  and  _130
REMARK   55  A    between atoms: _130  and  _131
REMARK   56  A    between atoms: _133  and  _135
REMARK   57  A    between atoms: _135  and  _136
REMARK   58  A    between atoms: _138  and  _140
REMARK   59  A    between atoms: _140  and  _141
REMARK   60  A    between atoms: _140  and  _143
REMARK   61  A    between atoms: _143  and  _144
REMARK   62  A    between atoms: _150  and  _152
REMARK   63  A    between atoms: _152  and  _153
REMARK   64  A    between atoms: _152  and  _155
REMARK   65  A    between atoms: _155  and  _156
REMARK   66  A    between atoms: _159  and  _161
REMARK   67  A    between atoms: _161  and  _162
REMARK   68  A    between atoms: _161  and  _164
REMARK   69  A    between atoms: _164  and  _165
REMARK   70  A    between atoms: _169  and  _170
REMARK   71  A    between atoms: _175  and  _177
REMARK   72  A    between atoms: _177  and  _178
REMARK   73  A    between atoms: _177  and  _180
REMARK   74  A    between atoms: _180  and  _181
REMARK   75  A    between atoms: _185  and  _186
REMARK   76  A    between atoms: _191  and  _193
REMARK   77  A    between atoms: _193  and  _194
REMARK   78  A    between atoms: _193  and  _196
REMARK   79  A    between atoms: _199  and  _201
REMARK   80  A    between atoms: _201  and  _202
REMARK   81  A    between atoms: _201  and  _204
REMARK   82  A    between atoms: _204  and  _205
REMARK   83  A    between atoms: _210  and  _212
REMARK   84  A    between atoms: _212  and  _213
REMARK   85  A    between atoms: _212  and  _215
REMARK   86  A    between atoms: _215  and  _216
REMARK   87  A    between atoms: _219  and  _221
REMARK   88  A    between atoms: _221  and  _222
REMARK   89  A    between atoms: _221  and  _224
REMARK   90  A    between atoms: _224  and  _225
REMARK   91  A    between atoms: _228  and  _230
REMARK   92  A    between atoms: _230  and  _231
REMARK   93  A    between atoms: _233  and  _235
REMARK   94  A    between atoms: _235  and  _236
REMARK   95  A    between atoms: _235  and  _238
REMARK   96  A    between atoms: _238  and  _239
REMARK   97  A    between atoms: _239  and  _240
REMARK   98  A    between atoms: _240  and  _241
REMARK   99  A    between atoms: _250  and  _252
REMARK  100  A    between atoms: _252  and  _253
REMARK  101  A    between atoms: _252  and  _255
REMARK  102  A    between atoms: _255  and  _256
REMARK  103  A    between atoms: _261  and  _263
REMARK  104  A    between atoms: _263  and  _264
REMARK  105  A    between atoms: _263  and  _266
REMARK  106  A    between atoms: _266  and  _267
REMARK  107  A    between atoms: _267  and  _268
REMARK  108  A    between atoms: _268  and  _269
REMARK  109  A    between atoms: _278  and  _280
REMARK  110  A    between atoms: _280  and  _281
REMARK  111  A    between atoms: _280  and  _283
REMARK  112  A    between atoms: _283  and  _284
REMARK  113  A    between atoms: _287  and  _289
REMARK  114  A    between atoms: _289  and  _290
REMARK  115  A    between atoms: _289  and  _292
REMARK  116  A    between atoms: _292  and  _293
REMARK  117  A    between atoms: _296  and  _298
REMARK  118  A    between atoms: _298  and  _299
REMARK  119  A    between atoms: _298  and  _301
REMARK  120  A    between atoms: _301  and  _302
REMARK  121  A    between atoms: _305  and  _307
REMARK  122  A    between atoms: _307  and  _308
REMARK  123  A    between atoms: _307  and  _310
REMARK  124  A    between atoms: _310  and  _311
REMARK  125  A    between atoms: _314  and  _316
REMARK  126  A    between atoms: _316  and  _317
REMARK  127  A    between atoms: _319  and  _321
REMARK  128  A    between atoms: _321  and  _322
REMARK  129  A    between atoms: _325  and  _327
REMARK  130  A    between atoms: _327  and  _328
REMARK  131  A    between atoms: _327  and  _330
REMARK  132  A    between atoms: _330  and  _331
REMARK  133  A    between atoms: _334  and  _336
REMARK  134  A    between atoms: _336  and  _337
REMARK  135  A    between atoms: _336  and  _339
REMARK  136  A    between atoms: _339  and  _340
REMARK  137  A    between atoms: _343  and  _345
REMARK  138  A    between atoms: _345  and  _346
REMARK  139  A    between atoms: _345  and  _348
REMARK  140  A    between atoms: _348  and  _349
REMARK  141  A    between atoms: _352  and  _354
REMARK  142  A    between atoms: _354  and  _355
REMARK  143  A    between atoms: _354  and  _357
REMARK  144  A    between atoms: _360  and  _362
REMARK  145  A    between atoms: _362  and  _363
REMARK  146  A    between atoms: _362  and  _365
REMARK  147  A    between atoms: _365  and  _366
REMARK  148  A    between atoms: _366  and  _367
REMARK  149  A    between atoms: _367  and  _368
REMARK  150  A    between atoms: _368  and  _369
REMARK  151  A    between atoms: _373  and  _375
REMARK  152  A    between atoms: _375  and  _376
REMARK  153  A    between atoms: _375  and  _378
REMARK  154  A    between atoms: _378  and  _379
REMARK  155  A    between atoms: _379  and  _380
REMARK  156  A    between atoms: _382  and  _384
REMARK  157  A    between atoms: _384  and  _385
REMARK  158  A    between atoms: _384  and  _387
REMARK  159  A    between atoms: _387  and  _388
REMARK  160  A    between atoms: _391  and  _393
REMARK  161  A    between atoms: _393  and  _394
REMARK  162  A    between atoms: _396  and  _398
REMARK  163  A    between atoms: _398  and  _399
REMARK  164  A    between atoms: _401  and  _403
REMARK  165  A    between atoms: _403  and  _404
REMARK  166  A    between atoms: _403  and  _406
REMARK  167  A    between atoms: _406  and  _407
REMARK  168  A    between atoms: _410  and  _412
REMARK  169  A    between atoms: _412  and  _413
REMARK  170  A    between atoms: _415  and  _417
REMARK  171  A    between atoms: _417  and  _418
REMARK  172  A    between atoms: _420  and  _422
REMARK  173  A    between atoms: _422  and  _423
REMARK  174  A    between atoms: _422  and  _425
REMARK  175  A    between atoms: _425  and  _426
REMARK  176  A    between atoms: _432  and  _434
REMARK  177  A    between atoms: _434  and  _435
REMARK  178  A    between atoms: _434  and  _437
REMARK  179  A    between atoms: _437  and  _438
REMARK  180  A    between atoms: _441  and  _443
REMARK  181  A    between atoms: _443  and  _444
REMARK  182  A    between atoms: _443  and  _446
REMARK  183  A    between atoms: _449  and  _451
REMARK  184  A    between atoms: _451  and  _452
REMARK  185  A    between atoms: _451  and  _454
REMARK  186  A    between atoms: _454  and  _455
REMARK  187  A    between atoms: _458  and  _460
REMARK  188  A    between atoms: _460  and  _461
REMARK  189  A    between atoms: _460  and  _463
REMARK  190  A    between atoms: _463  and  _464
REMARK  191  A    between atoms: _468  and  _469
REMARK  192  A    between atoms: _474  and  _476
REMARK  193  A    between atoms: _476  and  _477
REMARK  194  A    between atoms: _476  and  _479
REMARK  195  A    between atoms: _482  and  _484
REMARK  196  A    between atoms: _484  and  _485
REMARK  197  A    between atoms: _484  and  _487
REMARK  198  A    between atoms: _487  and  _488
REMARK  199  A    between atoms: _493  and  _495
REMARK  200  A    between atoms: _495  and  _496
REMARK  201  A    between atoms: _495  and  _498
REMARK  202  A    between atoms: _498  and  _499
REMARK  203  A    between atoms: _502  and  _504
REMARK  204  A    between atoms: _504  and  _505
REMARK  205  A    between atoms: _504  and  _507
REMARK  206  A    between atoms: _507  and  _508
REMARK  207  A    between atoms: _511  and  _513
REMARK  208  A    between atoms: _513  and  _514
REMARK  209  A    between atoms: _516  and  _518
REMARK  210  A    between atoms: _518  and  _519
REMARK  211  A    between atoms: _518  and  _521
REMARK  212  A    between atoms: _521  and  _522
REMARK  213  A    between atoms: _522  and  _523
REMARK  214  A    between atoms: _523  and  _524
REMARK  215  A    between atoms: _533  and  _535
REMARK  216  A    between atoms: _535  and  _536
REMARK  217  A    between atoms: _535  and  _538
REMARK  218  A    between atoms: _538  and  _539
REMARK                            x       y       z     vdW  Elec       q    Type
REMARK                         _______ _______ _______ _____ _____    ______ ____
ROOT
ATOM      1  O   HOH     1      18.291  26.563   6.598  0.00  0.00    +0.000 OA
ENDROOT
TORSDOF 0
REMARK  Name = ../refined-set-2016/2qhy/2qhy_pocket.pdb
REMARK  218 active torsions:
REMARK  status: ('A' for Active; 'I' for Inactive)
REMARK    1  A    between atoms: _1  and  _3
REMARK    2  A    between atoms: _3  and  _4
REMARK    3  A    between atoms: _3  and  _6
REMARK    4  A    between atoms: _6  and  _7
REMARK    5  A    between atoms: _7  and  _8
REMARK    6  A    between atoms: _8  and  _9
REMARK    7  A    between atoms: _18  and  _20
REMARK    8  A    between atoms: _20  and  _21
REMARK    9  A    between atoms: _20  and  _23
REMARK   10  A    between atoms: _23  and  _24
REMARK   11  A    between atoms: _27  and  _29
REMARK   12  A    between atoms: _29  and  _30
REMARK   13  A    between atoms: _29  and  _32
REMARK   14  A    between atoms: _32  and  _33
REMARK   15  A    between atoms: _36  and  _38
REMARK   16  A    between atoms: _38  and  _39
REMARK   17  A    between atoms: _38  and  _41
REMARK   18  A    between atoms: _41  and  _42
REMARK   19  A    between atoms: _45  and  _47
REMARK   20  A    between atoms: _47  and  _48
REMARK   21  A    between atoms: _47  and  _50
REMARK   22  A    between atoms: _50  and  _51
REMARK   23  A    between atoms: _54  and  _56
REMARK   24  A    between atoms: _56  and  _57
REMARK   25  A    between atoms: _59  and  _61
REMARK   26  A    between atoms: _61  and  _62
REMARK   27  A    between atoms: _65  and  _67
REMARK   28  A    between atoms: _67  and  _68
REMARK   29  A    between atoms: _67  and  _70
REMARK   30  A    between atoms: _70  and  _71
REMARK   31  A    between atoms: _74  and  _76
REMARK   32  A    between atoms: _76  and  _77
REMARK   33  A    between atoms: _76  and  _79
REMARK   34  A    between atoms: _79  and  _80
REMARK   35  A    between atoms: _83  and  _85
REMARK   36  A    between atoms: _85  and  _86
REMARK   37  A    between atoms: _85  and  _88
REMARK   38  A    between atoms: _88  and  _89
REMARK   39  A    between atoms: _92  and  _94
REMARK   40  A    between atoms: _94  and  _95
REMARK   41  A    between atoms: _94  and  _97
REMARK   42  A    between atoms: _100  and  _102
REMARK   43  A    between atoms: _102  and  _103
REMARK   44  A    between atoms: _102  and  _105
REMARK   45  A    between atoms: _105  and  _106
REMARK   46  A    between atoms: _109  and  _111
REMARK   47  A    between atoms: _111  and  _112
REMARK   48  A    between atoms: _114  and  _116
REMARK   49  A    between atoms: _116  and  _117
REMARK   50  A    between atoms: _119  and  _121
REMARK   51  A    between atoms: _121  and  _122
REMARK   52  A    between atoms: _121  and  _124
REMARK   53  A    between atoms: _124  and  _125
REMARK   54  A    between atoms: _128  and  _130
REMARK   55  A    between atoms: _130  and  _131
REMARK   56  A    between atoms: _133  and  _135
REMARK   57  A    between atoms: _135  and  _136
REMARK   58  A    between atoms: _138  and  _140
REMARK   59  A    between atoms: _140  and  _141
REMARK   60  A    between atoms: _140  and  _143
REMARK   61  A    between atoms: _143  and  _144
REMARK   62  A    between atoms: _150  and  _152
REMARK   63  A    between atoms: _152  and  _153
REMARK   64  A    between atoms: _152  and  _155
REMARK   65  A    between atoms: _155  and  _156
REMARK   66  A    between atoms: _159  and  _161
REMARK   67  A    between atoms: _161  and  _162
REMARK   68  A    between atoms: _161  and  _164
REMARK   69  A    between atoms: _164  and  _165
REMARK   70  A    between atoms: _169  and  _170
REMARK   71  A    between atoms: _175  and  _177
REMARK   72  A    between atoms: _177  and  _178
REMARK   73  A    between atoms: _177  and  _180
REMARK   74  A    between atoms: _180  and  _181
REMARK   75  A    between atoms: _185  and  _186
REMARK   76  A    between atoms: _191  and  _193
REMARK   77  A    between atoms: _193  and  _194
REMARK   78  A    between atoms: _193  and  _196
REMARK   79  A    between atoms: _199  and  _201
REMARK   80  A    between atoms: _201  and  _202
REMARK   81  A    between atoms: _201  and  _204
REMARK   82  A    between atoms: _204  and  _205
REMARK   83  A    between atoms: _210  and  _212
REMARK   84  A    between atoms: _212  and  _213
REMARK   85  A    between atoms: _212  and  _215
REMARK   86  A    between atoms: _215  and  _216
REMARK   87  A    between atoms: _219  and  _221
REMARK   88  A    between atoms: _221  and  _222
REMARK   89  A    between atoms: _221  and  _224
REMARK   90  A    between atoms: _224  and  _225
REMARK   91  A    between atoms: _228  and  _230
REMARK   92  A    between atoms: _230  and  _231
REMARK   93  A    between atoms: _233  and  _235
REMARK   94  A    between atoms: _235  and  _236
REMARK   95  A    between atoms: _235  and  _238
REMARK   96  A    between atoms: _238  and  _239
REMARK   97  A    between atoms: _239  and  _240
REMARK   98  A    between atoms: _240  and  _241
REMARK   99  A    between atoms: _250  and  _252
REMARK  100  A    between atoms: _252  and  _253
REMARK  101  A    between atoms: _252  and  _255
REMARK  102  A    between atoms: _255  and  _256
REMARK  103  A    between atoms: _261  and  _263
REMARK  104  A    between atoms: _263  and  _264
REMARK  105  A    between atoms: _263  and  _266
REMARK  106  A    between atoms: _266  and  _267
REMARK  107  A    between atoms: _267  and  _268
REMARK  108  A    between atoms: _268  and  _269
REMARK  109  A    between atoms: _278  and  _280
REMARK  110  A    between atoms: _280  and  _281
REMARK  111  A    between atoms: _280  and  _283
REMARK  112  A    between atoms: _283  and  _284
REMARK  113  A    between atoms: _287  and  _289
REMARK  114  A    between atoms: _289  and  _290
REMARK  115  A    between atoms: _289  and  _292
REMARK  116  A    between atoms: _292  and  _293
REMARK  117  A    between atoms: _296  and  _298
REMARK  118  A    between atoms: _298  and  _299
REMARK  119  A    between atoms: _298  and  _301
REMARK  120  A    between atoms: _301  and  _302
REMARK  121  A    between atoms: _305  and  _307
REMARK  122  A    between atoms: _307  and  _308
REMARK  123  A    between atoms: _307  and  _310
REMARK  124  A    between atoms: _310  and  _311
REMARK  125  A    between atoms: _314  and  _316
REMARK  126  A    between atoms: _316  and  _317
REMARK  127  A    between atoms: _319  and  _321
REMARK  128  A    between atoms: _321  and  _322
REMARK  129  A    between atoms: _325  and  _327
REMARK  130  A    between atoms: _327  and  _328
REMARK  131  A    between atoms: _327  and  _330
REMARK  132  A    between atoms: _330  and  _331
REMARK  133  A    between atoms: _334  and  _336
REMARK  134  A    between atoms: _336  and  _337
REMARK  135  A    between atoms: _336  and  _339
REMARK  136  A    between atoms: _339  and  _340
REMARK  137  A    between atoms: _343  and  _345
REMARK  138  A    between atoms: _345  and  _346
REMARK  139  A    between atoms: _345  and  _348
REMARK  140  A    between atoms: _348  and  _349
REMARK  141  A    between atoms: _352  and  _354
REMARK  142  A    between atoms: _354  and  _355
REMARK  143  A    between atoms: _354  and  _357
REMARK  144  A    between atoms: _360  and  _362
REMARK  145  A    between atoms: _362  and  _363
REMARK  146  A    between atoms: _362  and  _365
REMARK  147  A    between atoms: _365  and  _366
REMARK  148  A    between atoms: _366  and  _367
REMARK  149  A    between atoms: _367  and  _368
REMARK  150  A    between atoms: _368  and  _369
REMARK  151  A    between atoms: _373  and  _375
REMARK  152  A    between atoms: _375  and  _376
REMARK  153  A    between atoms: _375  and  _378
REMARK  154  A    between atoms: _378  and  _379
REMARK  155  A    between atoms: _379  and  _380
REMARK  156  A    between atoms: _382  and  _384
REMARK  157  A    between atoms: _384  and  _385
REMARK  158  A    between atoms: _384  and  _387
REMARK  159  A    between atoms: _387  and  _388
REMARK  160  A    between atoms: _391  and  _393
REMARK  161  A    between atoms: _393  and  _394
REMARK  162  A    between atoms: _396  and  _398
REMARK  163  A    between atoms: _398  and  _399
REMARK  164  A    between atoms: _401  and  _403
REMARK  165  A    between atoms: _403  and  _404
REMARK  166  A    between atoms: _403  and  _406
REMARK  167  A    between atoms: _406  and  _407
REMARK  168  A    between atoms: _410  and  _412
REMARK  169  A    between atoms: _412  and  _413
REMARK  170  A    between atoms: _415  and  _417
REMARK  171  A    between atoms: _417  and  _418
REMARK  172  A    between atoms: _420  and  _422
REMARK  173  A    between atoms: _422  and  _423
REMARK  174  A    between atoms: _422  and  _425
REMARK  175  A    between atoms: _425  and  _426
REMARK  176  A    between atoms: _432  and  _434
REMARK  177  A    between atoms: _434  and  _435
REMARK  178  A    between atoms: _434  and  _437
REMARK  179  A    between atoms: _437  and  _438
REMARK  180  A    between atoms: _441  and  _443
REMARK  181  A    between atoms: _443  and  _444
REMARK  182  A    between atoms: _443  and  _446
REMARK  183  A    between atoms: _449  and  _451
REMARK  184  A    between atoms: _451  and  _452
REMARK  185  A    between atoms: _451  and  _454
REMARK  186  A    between atoms: _454  and  _455
REMARK  187  A    between atoms: _458  and  _460
REMARK  188  A    between atoms: _460  and  _461
REMARK  189  A    between atoms: _460  and  _463
REMARK  190  A    between atoms: _463  and  _464
REMARK  191  A    between atoms: _468  and  _469
REMARK  192  A    between atoms: _474  and  _476
REMARK  193  A    between atoms: _476  and  _477
REMARK  194  A    between atoms: _476  and  _479
REMARK  195  A    between atoms: _482  and  _484
REMARK  196  A    between atoms: _484  and  _485
REMARK  197  A    between atoms: _484  and  _487
REMARK  198  A    between atoms: _487  and  _488
REMARK  199  A    between atoms: _493  and  _495
REMARK  200  A    between atoms: _495  and  _496
REMARK  201  A    between atoms: _495  and  _498
REMARK  202  A    between atoms: _498  and  _499
REMARK  203  A    between atoms: _502  and  _504
REMARK  204  A    between atoms: _504  and  _505
REMARK  205  A    between atoms: _504  and  _507
REMARK  206  A    between atoms: _507  and  _508
REMARK  207  A    between atoms: _511  and  _513
REMARK  208  A    between atoms: _513  and  _514
REMARK  209  A    between atoms: _516  and  _518
REMARK  210  A    between atoms: _518  and  _519
REMARK  211  A    between atoms: _518  and  _521
REMARK  212  A    between atoms: _521  and  _522
REMARK  213  A    between atoms: _522  and  _523
REMARK  214  A    between atoms: _523  and  _524
REMARK  215  A    between atoms: _533  and  _535
REMARK  216  A    between atoms: _535  and  _536
REMARK  217  A    between atoms: _535  and  _538
REMARK  218  A    between atoms: _538  and  _539
REMARK                            x       y       z     vdW  Elec       q    Type
REMARK                         _______ _______ _______ _____ _____    ______ ____
ROOT
ATOM      1  O   HOH     1      20.433  32.479  23.690  0.00  0.00    +0.000 OA
ENDROOT
TORSDOF 0
REMARK  Name = ../refined-set-2016/2qhy/2qhy_pocket.pdb
REMARK  218 active torsions:
REMARK  status: ('A' for Active; 'I' for Inactive)
REMARK    1  A    between atoms: _1  and  _3
REMARK    2  A    between atoms: _3  and  _4
REMARK    3  A    between atoms: _3  and  _6
REMARK    4  A    between atoms: _6  and  _7
REMARK    5  A    between atoms: _7  and  _8
REMARK    6  A    between atoms: _8  and  _9
REMARK    7  A    between atoms: _18  and  _20
REMARK    8  A    between atoms: _20  and  _21
REMARK    9  A    between atoms: _20  and  _23
REMARK   10  A    between atoms: _23  and  _24
REMARK   11  A    between atoms: _27  and  _29
REMARK   12  A    between atoms: _29  and  _30
REMARK   13  A    between atoms: _29  and  _32
REMARK   14  A    between atoms: _32  and  _33
REMARK   15  A    between atoms: _36  and  _38
REMARK   16  A    between atoms: _38  and  _39
REMARK   17  A    between atoms: _38  and  _41
REMARK   18  A    between atoms: _41  and  _42
REMARK   19  A    between atoms: _45  and  _47
REMARK   20  A    between atoms: _47  and  _48
REMARK   21  A    between atoms: _47  and  _50
REMARK   22  A    between atoms: _50  and  _51
REMARK   23  A    between atoms: _54  and  _56
REMARK   24  A    between atoms: _56  and  _57
REMARK   25  A    between atoms: _59  and  _61
REMARK   26  A    between atoms: _61  and  _62
REMARK   27  A    between atoms: _65  and  _67
REMARK   28  A    between atoms: _67  and  _68
REMARK   29  A    between atoms: _67  and  _70
REMARK   30  A    between atoms: _70  and  _71
REMARK   31  A    between atoms: _74  and  _76
REMARK   32  A    between atoms: _76  and  _77
REMARK   33  A    between atoms: _76  and  _79
REMARK   34  A    between atoms: _79  and  _80
REMARK   35  A    between atoms: _83  and  _85
REMARK   36  A    between atoms: _85  and  _86
REMARK   37  A    between atoms: _85  and  _88
REMARK   38  A    between atoms: _88  and  _89
REMARK   39  A    between atoms: _92  and  _94
REMARK   40  A    between atoms: _94  and  _95
REMARK   41  A    between atoms: _94  and  _97
REMARK   42  A    between atoms: _100  and  _102
REMARK   43  A    between atoms: _102  and  _103
REMARK   44  A    between atoms: _102  and  _105
REMARK   45  A    between atoms: _105  and  _106
REMARK   46  A    between atoms: _109  and  _111
REMARK   47  A    between atoms: _111  and  _112
REMARK   48  A    between atoms: _114  and  _116
REMARK   49  A    between atoms: _116  and  _117
REMARK   50  A    between atoms: _119  and  _121
REMARK   51  A    between atoms: _121  and  _122
REMARK   52  A    between atoms: _121  and  _124
REMARK   53  A    between atoms: _124  and  _125
REMARK   54  A    between atoms: _128  and  _130
REMARK   55  A    between atoms: _130  and  _131
REMARK   56  A    between atoms: _133  and  _135
REMARK   57  A    between atoms: _135  and  _136
REMARK   58  A    between atoms: _138  and  _140
REMARK   59  A    between atoms: _140  and  _141
REMARK   60  A    between atoms: _140  and  _143
REMARK   61  A    between atoms: _143  and  _144
REMARK   62  A    between atoms: _150  and  _152
REMARK   63  A    between atoms: _152  and  _153
REMARK   64  A    between atoms: _152  and  _155
REMARK   65  A    between atoms: _155  and  _156
REMARK   66  A    between atoms: _159  and  _161
REMARK   67  A    between atoms: _161  and  _162
REMARK   68  A    between atoms: _161  and  _164
REMARK   69  A    between atoms: _164  and  _165
REMARK   70  A    between atoms: _169  and  _170
REMARK   71  A    between atoms: _175  and  _177
REMARK   72  A    between atoms: _177  and  _178
REMARK   73  A    between atoms: _177  and  _180
REMARK   74  A    between atoms: _180  and  _181
REMARK   75  A    between atoms: _185  and  _186
REMARK   76  A    between atoms: _191  and  _193
REMARK   77  A    between atoms: _193  and  _194
REMARK   78  A    between atoms: _193  and  _196
REMARK   79  A    between atoms: _199  and  _201
REMARK   80  A    between atoms: _201  and  _202
REMARK   81  A    between atoms: _201  and  _204
REMARK   82  A    between atoms: _204  and  _205
REMARK   83  A    between atoms: _210  and  _212
REMARK   84  A    between atoms: _212  and  _213
REMARK   85  A    between atoms: _212  and  _215
REMARK   86  A    between atoms: _215  and  _216
REMARK   87  A    between atoms: _219  and  _221
REMARK   88  A    between atoms: _221  and  _222
REMARK   89  A    between atoms: _221  and  _224
REMARK   90  A    between atoms: _224  and  _225
REMARK   91  A    between atoms: _228  and  _230
REMARK   92  A    between atoms: _230  and  _231
REMARK   93  A    between atoms: _233  and  _235
REMARK   94  A    between atoms: _235  and  _236
REMARK   95  A    between atoms: _235  and  _238
REMARK   96  A    between atoms: _238  and  _239
REMARK   97  A    between atoms: _239  and  _240
REMARK   98  A    between atoms: _240  and  _241
REMARK   99  A    between atoms: _250  and  _252
REMARK  100  A    between atoms: _252  and  _253
REMARK  101  A    between atoms: _252  and  _255
REMARK  102  A    between atoms: _255  and  _256
REMARK  103  A    between atoms: _261  and  _263
REMARK  104  A    between atoms: _263  and  _264
REMARK  105  A    between atoms: _263  and  _266
REMARK  106  A    between atoms: _266  and  _267
REMARK  107  A    between atoms: _267  and  _268
REMARK  108  A    between atoms: _268  and  _269
REMARK  109  A    between atoms: _278  and  _280
REMARK  110  A    between atoms: _280  and  _281
REMARK  111  A    between atoms: _280  and  _283
REMARK  112  A    between atoms: _283  and  _284
REMARK  113  A    between atoms: _287  and  _289
REMARK  114  A    between atoms: _289  and  _290
REMARK  115  A    between atoms: _289  and  _292
REMARK  116  A    between atoms: _292  and  _293
REMARK  117  A    between atoms: _296  and  _298
REMARK  118  A    between atoms: _298  and  _299
REMARK  119  A    between atoms: _298  and  _301
REMARK  120  A    between atoms: _301  and  _302
REMARK  121  A    between atoms: _305  and  _307
REMARK  122  A    between atoms: _307  and  _308
REMARK  123  A    between atoms: _307  and  _310
REMARK  124  A    between atoms: _310  and  _311
REMARK  125  A    between atoms: _314  and  _316
REMARK  126  A    between atoms: _316  and  _317
REMARK  127  A    between atoms: _319  and  _321
REMARK  128  A    between atoms: _321  and  _322
REMARK  129  A    between atoms: _325  and  _327
REMARK  130  A    between atoms: _327  and  _328
REMARK  131  A    between atoms: _327  and  _330
REMARK  132  A    between atoms: _330  and  _331
REMARK  133  A    between atoms: _334  and  _336
REMARK  134  A    between atoms: _336  and  _337
REMARK  135  A    between atoms: _336  and  _339
REMARK  136  A    between atoms: _339  and  _340
REMARK  137  A    between atoms: _343  and  _345
REMARK  138  A    between atoms: _345  and  _346
REMARK  139  A    between atoms: _345  and  _348
REMARK  140  A    between atoms: _348  and  _349
REMARK  141  A    between atoms: _352  and  _354
REMARK  142  A    between atoms: _354  and  _355
REMARK  143  A    between atoms: _354  and  _357
REMARK  144  A    between atoms: _360  and  _362
REMARK  145  A    between atoms: _362  and  _363
REMARK  146  A    between atoms: _362  and  _365
REMARK  147  A    between atoms: _365  and  _366
REMARK  148  A    between atoms: _366  and  _367
REMARK  149  A    between atoms: _367  and  _368
REMARK  150  A    between atoms: _368  and  _369
REMARK  151  A    between atoms: _373  and  _375
REMARK  152  A    between atoms: _375  and  _376
REMARK  153  A    between atoms: _375  and  _378
REMARK  154  A    between atoms: _378  and  _379
REMARK  155  A    between atoms: _379  and  _380
REMARK  156  A    between atoms: _382  and  _384
REMARK  157  A    between atoms: _384  and  _385
REMARK  158  A    between atoms: _384  and  _387
REMARK  159  A    between atoms: _387  and  _388
REMARK  160  A    between atoms: _391  and  _393
REMARK  161  A    between atoms: _393  and  _394
REMARK  162  A    between atoms: _396  and  _398
REMARK  163  A    between atoms: _398  and  _399
REMARK  164  A    between atoms: _401  and  _403
REMARK  165  A    between atoms: _403  and  _404
REMARK  166  A    between atoms: _403  and  _406
REMARK  167  A    between atoms: _406  and  _407
REMARK  168  A    between atoms: _410  and  _412
REMARK  169  A    between atoms: _412  and  _413
REMARK  170  A    between atoms: _415  and  _417
REMARK  171  A    between atoms: _417  and  _418
REMARK  172  A    between atoms: _420  and  _422
REMARK  173  A    between atoms: _422  and  _423
REMARK  174  A    between atoms: _422  and  _425
REMARK  175  A    between atoms: _425  and  _426
REMARK  176  A    between atoms: _432  and  _434
REMARK  177  A    between atoms: _434  and  _435
REMARK  178  A    between atoms: _434  and  _437
REMARK  179  A    between atoms: _437  and  _438
REMARK  180  A    between atoms: _441  and  _443
REMARK  181  A    between atoms: _443  and  _444
REMARK  182  A    between atoms: _443  and  _446
REMARK  183  A    between atoms: _449  and  _451
REMARK  184  A    between atoms: _451  and  _452
REMARK  185  A    between atoms: _451  and  _454
REMARK  186  A    between atoms: _454  and  _455
REMARK  187  A    between atoms: _458  and  _460
REMARK  188  A    between atoms: _460  and  _461
REMARK  189  A    between atoms: _460  and  _463
REMARK  190  A    between atoms: _463  and  _464
REMARK  191  A    between atoms: _468  and  _469
REMARK  192  A    between atoms: _474  and  _476
REMARK  193  A    between atoms: _476  and  _477
REMARK  194  A    between atoms: _476  and  _479
REMARK  195  A    between atoms: _482  and  _484
REMARK  196  A    between atoms: _484  and  _485
REMARK  197  A    between atoms: _484  and  _487
REMARK  198  A    between atoms: _487  and  _488
REMARK  199  A    between atoms: _493  and  _495
REMARK  200  A    between atoms: _495  and  _496
REMARK  201  A    between atoms: _495  and  _498
REMARK  202  A    between atoms: _498  and  _499
REMARK  203  A    between atoms: _502  and  _504
REMARK  204  A    between atoms: _504  and  _505
REMARK  205  A    between atoms: _504  and  _507
REMARK  206  A    between atoms: _507  and  _508
REMARK  207  A    between atoms: _511  and  _513
REMARK  208  A    between atoms: _513  and  _514
REMARK  209  A    between atoms: _516  and  _518
REMARK  210  A    between atoms: _518  and  _519
REMARK  211  A    between atoms: _518  and  _521
REMARK  212  A    between atoms: _521  and  _522
REMARK  213  A    between atoms: _522  and  _523
REMARK  214  A    between atoms: _523  and  _524
REMARK  215  A    between atoms: _533  and  _535
REMARK  216  A    between atoms: _535  and  _536
REMARK  217  A    between atoms: _535  and  _538
REMARK  218  A    between atoms: _538  and  _539
REMARK                            x       y       z     vdW  Elec       q    Type
REMARK                         _______ _______ _______ _____ _____    ______ ____
ROOT
ATOM      1  O   HOH     1       9.342  34.861  21.589  0.00  0.00    +0.000 OA
ENDROOT
TORSDOF 0
REMARK  Name = ../refined-set-2016/2qhy/2qhy_pocket.pdb
REMARK  218 active torsions:
REMARK  status: ('A' for Active; 'I' for Inactive)
REMARK    1  A    between atoms: _1  and  _3
REMARK    2  A    between atoms: _3  and  _4
REMARK    3  A    between atoms: _3  and  _6
REMARK    4  A    between atoms: _6  and  _7
REMARK    5  A    between atoms: _7  and  _8
REMARK    6  A    between atoms: _8  and  _9
REMARK    7  A    between atoms: _18  and  _20
REMARK    8  A    between atoms: _20  and  _21
REMARK    9  A    between atoms: _20  and  _23
REMARK   10  A    between atoms: _23  and  _24
REMARK   11  A    between atoms: _27  and  _29
REMARK   12  A    between atoms: _29  and  _30
REMARK   13  A    between atoms: _29  and  _32
REMARK   14  A    between atoms: _32  and  _33
REMARK   15  A    between atoms: _36  and  _38
REMARK   16  A    between atoms: _38  and  _39
REMARK   17  A    between atoms: _38  and  _41
REMARK   18  A    between atoms: _41  and  _42
REMARK   19  A    between atoms: _45  and  _47
REMARK   20  A    between atoms: _47  and  _48
REMARK   21  A    between atoms: _47  and  _50
REMARK   22  A    between atoms: _50  and  _51
REMARK   23  A    between atoms: _54  and  _56
REMARK   24  A    between atoms: _56  and  _57
REMARK   25  A    between atoms: _59  and  _61
REMARK   26  A    between atoms: _61  and  _62
REMARK   27  A    between atoms: _65  and  _67
REMARK   28  A    between atoms: _67  and  _68
REMARK   29  A    between atoms: _67  and  _70
REMARK   30  A    between atoms: _70  and  _71
REMARK   31  A    between atoms: _74  and  _76
REMARK   32  A    between atoms: _76  and  _77
REMARK   33  A    between atoms: _76  and  _79
REMARK   34  A    between atoms: _79  and  _80
REMARK   35  A    between atoms: _83  and  _85
REMARK   36  A    between atoms: _85  and  _86
REMARK   37  A    between atoms: _85  and  _88
REMARK   38  A    between atoms: _88  and  _89
REMARK   39  A    between atoms: _92  and  _94
REMARK   40  A    between atoms: _94  and  _95
REMARK   41  A    between atoms: _94  and  _97
REMARK   42  A    between atoms: _100  and  _102
REMARK   43  A    between atoms: _102  and  _103
REMARK   44  A    between atoms: _102  and  _105
REMARK   45  A    between atoms: _105  and  _106
REMARK   46  A    between atoms: _109  and  _111
REMARK   47  A    between atoms: _111  and  _112
REMARK   48  A    between atoms: _114  and  _116
REMARK   49  A    between atoms: _116  and  _117
REMARK   50  A    between atoms: _119  and  _121
REMARK   51  A    between atoms: _121  and  _122
REMARK   52  A    between atoms: _121  and  _124
REMARK   53  A    between atoms: _124  and  _125
REMARK   54  A    between atoms: _128  and  _130
REMARK   55  A    between atoms: _130  and  _131
REMARK   56  A    between atoms: _133  and  _135
REMARK   57  A    between atoms: _135  and  _136
REMARK   58  A    between atoms: _138  and  _140
REMARK   59  A    between atoms: _140  and  _141
REMARK   60  A    between atoms: _140  and  _143
REMARK   61  A    between atoms: _143  and  _144
REMARK   62  A    between atoms: _150  and  _152
REMARK   63  A    between atoms: _152  and  _153
REMARK   64  A    between atoms: _152  and  _155
REMARK   65  A    between atoms: _155  and  _156
REMARK   66  A    between atoms: _159  and  _161
REMARK   67  A    between atoms: _161  and  _162
REMARK   68  A    between atoms: _161  and  _164
REMARK   69  A    between atoms: _164  and  _165
REMARK   70  A    between atoms: _169  and  _170
REMARK   71  A    between atoms: _175  and  _177
REMARK   72  A    between atoms: _177  and  _178
REMARK   73  A    between atoms: _177  and  _180
REMARK   74  A    between atoms: _180  and  _181
REMARK   75  A    between atoms: _185  and  _186
REMARK   76  A    between atoms: _191  and  _193
REMARK   77  A    between atoms: _193  and  _194
REMARK   78  A    between atoms: _193  and  _196
REMARK   79  A    between atoms: _199  and  _201
REMARK   80  A    between atoms: _201  and  _202
REMARK   81  A    between atoms: _201  and  _204
REMARK   82  A    between atoms: _204  and  _205
REMARK   83  A    between atoms: _210  and  _212
REMARK   84  A    between atoms: _212  and  _213
REMARK   85  A    between atoms: _212  and  _215
REMARK   86  A    between atoms: _215  and  _216
REMARK   87  A    between atoms: _219  and  _221
REMARK   88  A    between atoms: _221  and  _222
REMARK   89  A    between atoms: _221  and  _224
REMARK   90  A    between atoms: _224  and  _225
REMARK   91  A    between atoms: _228  and  _230
REMARK   92  A    between atoms: _230  and  _231
REMARK   93  A    between atoms: _233  and  _235
REMARK   94  A    between atoms: _235  and  _236
REMARK   95  A    between atoms: _235  and  _238
REMARK   96  A    between atoms: _238  and  _239
REMARK   97  A    between atoms: _239  and  _240
REMARK   98  A    between atoms: _240  and  _241
REMARK   99  A    between atoms: _250  and  _252
REMARK  100  A    between atoms: _252  and  _253
REMARK  101  A    between atoms: _252  and  _255
REMARK  102  A    between atoms: _255  and  _256
REMARK  103  A    between atoms: _261  and  _263
REMARK  104  A    between atoms: _263  and  _264
REMARK  105  A    between atoms: _263  and  _266
REMARK  106  A    between atoms: _266  and  _267
REMARK  107  A    between atoms: _267  and  _268
REMARK  108  A    between atoms: _268  and  _269
REMARK  109  A    between atoms: _278  and  _280
REMARK  110  A    between atoms: _280  and  _281
REMARK  111  A    between atoms: _280  and  _283
REMARK  112  A    between atoms: _283  and  _284
REMARK  113  A    between atoms: _287  and  _289
REMARK  114  A    between atoms: _289  and  _290
REMARK  115  A    between atoms: _289  and  _292
REMARK  116  A    between atoms: _292  and  _293
REMARK  117  A    between atoms: _296  and  _298
REMARK  118  A    between atoms: _298  and  _299
REMARK  119  A    between atoms: _298  and  _301
REMARK  120  A    between atoms: _301  and  _302
REMARK  121  A    between atoms: _305  and  _307
REMARK  122  A    between atoms: _307  and  _308
REMARK  123  A    between atoms: _307  and  _310
REMARK  124  A    between atoms: _310  and  _311
REMARK  125  A    between atoms: _314  and  _316
REMARK  126  A    between atoms: _316  and  _317
REMARK  127  A    between atoms: _319  and  _321
REMARK  128  A    between atoms: _321  and  _322
REMARK  129  A    between atoms: _325  and  _327
REMARK  130  A    between atoms: _327  and  _328
REMARK  131  A    between atoms: _327  and  _330
REMARK  132  A    between atoms: _330  and  _331
REMARK  133  A    between atoms: _334  and  _336
REMARK  134  A    between atoms: _336  and  _337
REMARK  135  A    between atoms: _336  and  _339
REMARK  136  A    between atoms: _339  and  _340
REMARK  137  A    between atoms: _343  and  _345
REMARK  138  A    between atoms: _345  and  _346
REMARK  139  A    between atoms: _345  and  _348
REMARK  140  A    between atoms: _348  and  _349
REMARK  141  A    between atoms: _352  and  _354
REMARK  142  A    between atoms: _354  and  _355
REMARK  143  A    between atoms: _354  and  _357
REMARK  144  A    between atoms: _360  and  _362
REMARK  145  A    between atoms: _362  and  _363
REMARK  146  A    between atoms: _362  and  _365
REMARK  147  A    between atoms: _365  and  _366
REMARK  148  A    between atoms: _366  and  _367
REMARK  149  A    between atoms: _367  and  _368
REMARK  150  A    between atoms: _368  and  _369
REMARK  151  A    between atoms: _373  and  _375
REMARK  152  A    between atoms: _375  and  _376
REMARK  153  A    between atoms: _375  and  _378
REMARK  154  A    between atoms: _378  and  _379
REMARK  155  A    between atoms: _379  and  _380
REMARK  156  A    between atoms: _382  and  _384
REMARK  157  A    between atoms: _384  and  _385
REMARK  158  A    between atoms: _384  and  _387
REMARK  159  A    between atoms: _387  and  _388
REMARK  160  A    between atoms: _391  and  _393
REMARK  161  A    between atoms: _393  and  _394
REMARK  162  A    between atoms: _396  and  _398
REMARK  163  A    between atoms: _398  and  _399
REMARK  164  A    between atoms: _401  and  _403
REMARK  165  A    between atoms: _403  and  _404
REMARK  166  A    between atoms: _403  and  _406
REMARK  167  A    between atoms: _406  and  _407
REMARK  168  A    between atoms: _410  and  _412
REMARK  169  A    between atoms: _412  and  _413
REMARK  170  A    between atoms: _415  and  _417
REMARK  171  A    between atoms: _417  and  _418
REMARK  172  A    between atoms: _420  and  _422
REMARK  173  A    between atoms: _422  and  _423
REMARK  174  A    between atoms: _422  and  _425
REMARK  175  A    between atoms: _425  and  _426
REMARK  176  A    between atoms: _432  and  _434
REMARK  177  A    between atoms: _434  and  _435
REMARK  178  A    between atoms: _434  and  _437
REMARK  179  A    between atoms: _437  and  _438
REMARK  180  A    between atoms: _441  and  _443
REMARK  181  A    between atoms: _443  and  _444
REMARK  182  A    between atoms: _443  and  _446
REMARK  183  A    between atoms: _449  and  _451
REMARK  184  A    between atoms: _451  and  _452
REMARK  185  A    between atoms: _451  and  _454
REMARK  186  A    between atoms: _454  and  _455
REMARK  187  A    between atoms: _458  and  _460
REMARK  188  A    between atoms: _460  and  _461
REMARK  189  A    between atoms: _460  and  _463
REMARK  190  A    between atoms: _463  and  _464
REMARK  191  A    between atoms: _468  and  _469
REMARK  192  A    between atoms: _474  and  _476
REMARK  193  A    between atoms: _476  and  _477
REMARK  194  A    between atoms: _476  and  _479
REMARK  195  A    between atoms: _482  and  _484
REMARK  196  A    between atoms: _484  and  _485
REMARK  197  A    between atoms: _484  and  _487
REMARK  198  A    between atoms: _487  and  _488
REMARK  199  A    between atoms: _493  and  _495
REMARK  200  A    between atoms: _495  and  _496
REMARK  201  A    between atoms: _495  and  _498
REMARK  202  A    between atoms: _498  and  _499
REMARK  203  A    between atoms: _502  and  _504
REMARK  204  A    between atoms: _504  and  _505
REMARK  205  A    between atoms: _504  and  _507
REMARK  206  A    between atoms: _507  and  _508
REMARK  207  A    between atoms: _511  and  _513
REMARK  208  A    between atoms: _513  and  _514
REMARK  209  A    between atoms: _516  and  _518
REMARK  210  A    between atoms: _518  and  _519
REMARK  211  A    between atoms: _518  and  _521
REMARK  212  A    between atoms: _521  and  _522
REMARK  213  A    between atoms: _522  and  _523
REMARK  214  A    between atoms: _523  and  _524
REMARK  215  A    between atoms: _533  and  _535
REMARK  216  A    between atoms: _535  and  _536
REMARK  217  A    between atoms: _535  and  _538
REMARK  218  A    between atoms: _538  and  _539
REMARK                            x       y       z     vdW  Elec       q    Type
REMARK                         _______ _______ _______ _____ _____    ______ ____
ROOT
ATOM      1  O   HOH     1      17.966  35.221  19.548  0.00  0.00    +0.000 OA
ENDROOT
TORSDOF 0
REMARK  Name = ../refined-set-2016/2qhy/2qhy_pocket.pdb
REMARK  218 active torsions:
REMARK  status: ('A' for Active; 'I' for Inactive)
REMARK    1  A    between atoms: _1  and  _3
REMARK    2  A    between atoms: _3  and  _4
REMARK    3  A    between atoms: _3  and  _6
REMARK    4  A    between atoms: _6  and  _7
REMARK    5  A    between atoms: _7  and  _8
REMARK    6  A    between atoms: _8  and  _9
REMARK    7  A    between atoms: _18  and  _20
REMARK    8  A    between atoms: _20  and  _21
REMARK    9  A    between atoms: _20  and  _23
REMARK   10  A    between atoms: _23  and  _24
REMARK   11  A    between atoms: _27  and  _29
REMARK   12  A    between atoms: _29  and  _30
REMARK   13  A    between atoms: _29  and  _32
REMARK   14  A    between atoms: _32  and  _33
REMARK   15  A    between atoms: _36  and  _38
REMARK   16  A    between atoms: _38  and  _39
REMARK   17  A    between atoms: _38  and  _41
REMARK   18  A    between atoms: _41  and  _42
REMARK   19  A    between atoms: _45  and  _47
REMARK   20  A    between atoms: _47  and  _48
REMARK   21  A    between atoms: _47  and  _50
REMARK   22  A    between atoms: _50  and  _51
REMARK   23  A    between atoms: _54  and  _56
REMARK   24  A    between atoms: _56  and  _57
REMARK   25  A    between atoms: _59  and  _61
REMARK   26  A    between atoms: _61  and  _62
REMARK   27  A    between atoms: _65  and  _67
REMARK   28  A    between atoms: _67  and  _68
REMARK   29  A    between atoms: _67  and  _70
REMARK   30  A    between atoms: _70  and  _71
REMARK   31  A    between atoms: _74  and  _76
REMARK   32  A    between atoms: _76  and  _77
REMARK   33  A    between atoms: _76  and  _79
REMARK   34  A    between atoms: _79  and  _80
REMARK   35  A    between atoms: _83  and  _85
REMARK   36  A    between atoms: _85  and  _86
REMARK   37  A    between atoms: _85  and  _88
REMARK   38  A    between atoms: _88  and  _89
REMARK   39  A    between atoms: _92  and  _94
REMARK   40  A    between atoms: _94  and  _95
REMARK   41  A    between atoms: _94  and  _97
REMARK   42  A    between atoms: _100  and  _102
REMARK   43  A    between atoms: _102  and  _103
REMARK   44  A    between atoms: _102  and  _105
REMARK   45  A    between atoms: _105  and  _106
REMARK   46  A    between atoms: _109  and  _111
REMARK   47  A    between atoms: _111  and  _112
REMARK   48  A    between atoms: _114  and  _116
REMARK   49  A    between atoms: _116  and  _117
REMARK   50  A    between atoms: _119  and  _121
REMARK   51  A    between atoms: _121  and  _122
REMARK   52  A    between atoms: _121  and  _124
REMARK   53  A    between atoms: _124  and  _125
REMARK   54  A    between atoms: _128  and  _130
REMARK   55  A    between atoms: _130  and  _131
REMARK   56  A    between atoms: _133  and  _135
REMARK   57  A    between atoms: _135  and  _136
REMARK   58  A    between atoms: _138  and  _140
REMARK   59  A    between atoms: _140  and  _141
REMARK   60  A    between atoms: _140  and  _143
REMARK   61  A    between atoms: _143  and  _144
REMARK   62  A    between atoms: _150  and  _152
REMARK   63  A    between atoms: _152  and  _153
REMARK   64  A    between atoms: _152  and  _155
REMARK   65  A    between atoms: _155  and  _156
REMARK   66  A    between atoms: _159  and  _161
REMARK   67  A    between atoms: _161  and  _162
REMARK   68  A    between atoms: _161  and  _164
REMARK   69  A    between atoms: _164  and  _165
REMARK   70  A    between atoms: _169  and  _170
REMARK   71  A    between atoms: _175  and  _177
REMARK   72  A    between atoms: _177  and  _178
REMARK   73  A    between atoms: _177  and  _180
REMARK   74  A    between atoms: _180  and  _181
REMARK   75  A    between atoms: _185  and  _186
REMARK   76  A    between atoms: _191  and  _193
REMARK   77  A    between atoms: _193  and  _194
REMARK   78  A    between atoms: _193  and  _196
REMARK   79  A    between atoms: _199  and  _201
REMARK   80  A    between atoms: _201  and  _202
REMARK   81  A    between atoms: _201  and  _204
REMARK   82  A    between atoms: _204  and  _205
REMARK   83  A    between atoms: _210  and  _212
REMARK   84  A    between atoms: _212  and  _213
REMARK   85  A    between atoms: _212  and  _215
REMARK   86  A    between atoms: _215  and  _216
REMARK   87  A    between atoms: _219  and  _221
REMARK   88  A    between atoms: _221  and  _222
REMARK   89  A    between atoms: _221  and  _224
REMARK   90  A    between atoms: _224  and  _225
REMARK   91  A    between atoms: _228  and  _230
REMARK   92  A    between atoms: _230  and  _231
REMARK   93  A    between atoms: _233  and  _235
REMARK   94  A    between atoms: _235  and  _236
REMARK   95  A    between atoms: _235  and  _238
REMARK   96  A    between atoms: _238  and  _239
REMARK   97  A    between atoms: _239  and  _240
REMARK   98  A    between atoms: _240  and  _241
REMARK   99  A    between atoms: _250  and  _252
REMARK  100  A    between atoms: _252  and  _253
REMARK  101  A    between atoms: _252  and  _255
REMARK  102  A    between atoms: _255  and  _256
REMARK  103  A    between atoms: _261  and  _263
REMARK  104  A    between atoms: _263  and  _264
REMARK  105  A    between atoms: _263  and  _266
REMARK  106  A    between atoms: _266  and  _267
REMARK  107  A    between atoms: _267  and  _268
REMARK  108  A    between atoms: _268  and  _269
REMARK  109  A    between atoms: _278  and  _280
REMARK  110  A    between atoms: _280  and  _281
REMARK  111  A    between atoms: _280  and  _283
REMARK  112  A    between atoms: _283  and  _284
REMARK  113  A    between atoms: _287  and  _289
REMARK  114  A    between atoms: _289  and  _290
REMARK  115  A    between atoms: _289  and  _292
REMARK  116  A    between atoms: _292  and  _293
REMARK  117  A    between atoms: _296  and  _298
REMARK  118  A    between atoms: _298  and  _299
REMARK  119  A    between atoms: _298  and  _301
REMARK  120  A    between atoms: _301  and  _302
REMARK  121  A    between atoms: _305  and  _307
REMARK  122  A    between atoms: _307  and  _308
REMARK  123  A    between atoms: _307  and  _310
REMARK  124  A    between atoms: _310  and  _311
REMARK  125  A    between atoms: _314  and  _316
REMARK  126  A    between atoms: _316  and  _317
REMARK  127  A    between atoms: _319  and  _321
REMARK  128  A    between atoms: _321  and  _322
REMARK  129  A    between atoms: _325  and  _327
REMARK  130  A    between atoms: _327  and  _328
REMARK  131  A    between atoms: _327  and  _330
REMARK  132  A    between atoms: _330  and  _331
REMARK  133  A    between atoms: _334  and  _336
REMARK  134  A    between atoms: _336  and  _337
REMARK  135  A    between atoms: _336  and  _339
REMARK  136  A    between atoms: _339  and  _340
REMARK  137  A    between atoms: _343  and  _345
REMARK  138  A    between atoms: _345  and  _346
REMARK  139  A    between atoms: _345  and  _348
REMARK  140  A    between atoms: _348  and  _349
REMARK  141  A    between atoms: _352  and  _354
REMARK  142  A    between atoms: _354  and  _355
REMARK  143  A    between atoms: _354  and  _357
REMARK  144  A    between atoms: _360  and  _362
REMARK  145  A    between atoms: _362  and  _363
REMARK  146  A    between atoms: _362  and  _365
REMARK  147  A    between atoms: _365  and  _366
REMARK  148  A    between atoms: _366  and  _367
REMARK  149  A    between atoms: _367  and  _368
REMARK  150  A    between atoms: _368  and  _369
REMARK  151  A    between atoms: _373  and  _375
REMARK  152  A    between atoms: _375  and  _376
REMARK  153  A    between atoms: _375  and  _378
REMARK  154  A    between atoms: _378  and  _379
REMARK  155  A    between atoms: _379  and  _380
REMARK  156  A    between atoms: _382  and  _384
REMARK  157  A    between atoms: _384  and  _385
REMARK  158  A    between atoms: _384  and  _387
REMARK  159  A    between atoms: _387  and  _388
REMARK  160  A    between atoms: _391  and  _393
REMARK  161  A    between atoms: _393  and  _394
REMARK  162  A    between atoms: _396  and  _398
REMARK  163  A    between atoms: _398  and  _399
REMARK  164  A    between atoms: _401  and  _403
REMARK  165  A    between atoms: _403  and  _404
REMARK  166  A    between atoms: _403  and  _406
REMARK  167  A    between atoms: _406  and  _407
REMARK  168  A    between atoms: _410  and  _412
REMARK  169  A    between atoms: _412  and  _413
REMARK  170  A    between atoms: _415  and  _417
REMARK  171  A    between atoms: _417  and  _418
REMARK  172  A    between atoms: _420  and  _422
REMARK  173  A    between atoms: _422  and  _423
REMARK  174  A    between atoms: _422  and  _425
REMARK  175  A    between atoms: _425  and  _426
REMARK  176  A    between atoms: _432  and  _434
REMARK  177  A    between atoms: _434  and  _435
REMARK  178  A    between atoms: _434  and  _437
REMARK  179  A    between atoms: _437  and  _438
REMARK  180  A    between atoms: _441  and  _443
REMARK  181  A    between atoms: _443  and  _444
REMARK  182  A    between atoms: _443  and  _446
REMARK  183  A    between atoms: _449  and  _451
REMARK  184  A    between atoms: _451  and  _452
REMARK  185  A    between atoms: _451  and  _454
REMARK  186  A    between atoms: _454  and  _455
REMARK  187  A    between atoms: _458  and  _460
REMARK  188  A    between atoms: _460  and  _461
REMARK  189  A    between atoms: _460  and  _463
REMARK  190  A    between atoms: _463  and  _464
REMARK  191  A    between atoms: _468  and  _469
REMARK  192  A    between atoms: _474  and  _476
REMARK  193  A    between atoms: _476  and  _477
REMARK  194  A    between atoms: _476  and  _479
REMARK  195  A    between atoms: _482  and  _484
REMARK  196  A    between atoms: _484  and  _485
REMARK  197  A    between atoms: _484  and  _487
REMARK  198  A    between atoms: _487  and  _488
REMARK  199  A    between atoms: _493  and  _495
REMARK  200  A    between atoms: _495  and  _496
REMARK  201  A    between atoms: _495  and  _498
REMARK  202  A    between atoms: _498  and  _499
REMARK  203  A    between atoms: _502  and  _504
REMARK  204  A    between atoms: _504  and  _505
REMARK  205  A    between atoms: _504  and  _507
REMARK  206  A    between atoms: _507  and  _508
REMARK  207  A    between atoms: _511  and  _513
REMARK  208  A    between atoms: _513  and  _514
REMARK  209  A    between atoms: _516  and  _518
REMARK  210  A    between atoms: _518  and  _519
REMARK  211  A    between atoms: _518  and  _521
REMARK  212  A    between atoms: _521  and  _522
REMARK  213  A    between atoms: _522  and  _523
REMARK  214  A    between atoms: _523  and  _524
REMARK  215  A    between atoms: _533  and  _535
REMARK  216  A    between atoms: _535  and  _536
REMARK  217  A    between atoms: _535  and  _538
REMARK  218  A    between atoms: _538  and  _539
REMARK                            x       y       z     vdW  Elec       q    Type
REMARK                         _______ _______ _______ _____ _____    ______ ____
ROOT
ATOM      1  O   HOH     1      17.395  40.441  16.043  0.00  0.00    +0.000 OA
ENDROOT
TORSDOF 0
REMARK  Name = ../refined-set-2016/2qhy/2qhy_pocket.pdb
REMARK  218 active torsions:
REMARK  status: ('A' for Active; 'I' for Inactive)
REMARK    1  A    between atoms: _1  and  _3
REMARK    2  A    between atoms: _3  and  _4
REMARK    3  A    between atoms: _3  and  _6
REMARK    4  A    between atoms: _6  and  _7
REMARK    5  A    between atoms: _7  and  _8
REMARK    6  A    between atoms: _8  and  _9
REMARK    7  A    between atoms: _18  and  _20
REMARK    8  A    between atoms: _20  and  _21
REMARK    9  A    between atoms: _20  and  _23
REMARK   10  A    between atoms: _23  and  _24
REMARK   11  A    between atoms: _27  and  _29
REMARK   12  A    between atoms: _29  and  _30
REMARK   13  A    between atoms: _29  and  _32
REMARK   14  A    between atoms: _32  and  _33
REMARK   15  A    between atoms: _36  and  _38
REMARK   16  A    between atoms: _38  and  _39
REMARK   17  A    between atoms: _38  and  _41
REMARK   18  A    between atoms: _41  and  _42
REMARK   19  A    between atoms: _45  and  _47
REMARK   20  A    between atoms: _47  and  _48
REMARK   21  A    between atoms: _47  and  _50
REMARK   22  A    between atoms: _50  and  _51
REMARK   23  A    between atoms: _54  and  _56
REMARK   24  A    between atoms: _56  and  _57
REMARK   25  A    between atoms: _59  and  _61
REMARK   26  A    between atoms: _61  and  _62
REMARK   27  A    between atoms: _65  and  _67
REMARK   28  A    between atoms: _67  and  _68
REMARK   29  A    between atoms: _67  and  _70
REMARK   30  A    between atoms: _70  and  _71
REMARK   31  A    between atoms: _74  and  _76
REMARK   32  A    between atoms: _76  and  _77
REMARK   33  A    between atoms: _76  and  _79
REMARK   34  A    between atoms: _79  and  _80
REMARK   35  A    between atoms: _83  and  _85
REMARK   36  A    between atoms: _85  and  _86
REMARK   37  A    between atoms: _85  and  _88
REMARK   38  A    between atoms: _88  and  _89
REMARK   39  A    between atoms: _92  and  _94
REMARK   40  A    between atoms: _94  and  _95
REMARK   41  A    between atoms: _94  and  _97
REMARK   42  A    between atoms: _100  and  _102
REMARK   43  A    between atoms: _102  and  _103
REMARK   44  A    between atoms: _102  and  _105
REMARK   45  A    between atoms: _105  and  _106
REMARK   46  A    between atoms: _109  and  _111
REMARK   47  A    between atoms: _111  and  _112
REMARK   48  A    between atoms: _114  and  _116
REMARK   49  A    between atoms: _116  and  _117
REMARK   50  A    between atoms: _119  and  _121
REMARK   51  A    between atoms: _121  and  _122
REMARK   52  A    between atoms: _121  and  _124
REMARK   53  A    between atoms: _124  and  _125
REMARK   54  A    between atoms: _128  and  _130
REMARK   55  A    between atoms: _130  and  _131
REMARK   56  A    between atoms: _133  and  _135
REMARK   57  A    between atoms: _135  and  _136
REMARK   58  A    between atoms: _138  and  _140
REMARK   59  A    between atoms: _140  and  _141
REMARK   60  A    between atoms: _140  and  _143
REMARK   61  A    between atoms: _143  and  _144
REMARK   62  A    between atoms: _150  and  _152
REMARK   63  A    between atoms: _152  and  _153
REMARK   64  A    between atoms: _152  and  _155
REMARK   65  A    between atoms: _155  and  _156
REMARK   66  A    between atoms: _159  and  _161
REMARK   67  A    between atoms: _161  and  _162
REMARK   68  A    between atoms: _161  and  _164
REMARK   69  A    between atoms: _164  and  _165
REMARK   70  A    between atoms: _169  and  _170
REMARK   71  A    between atoms: _175  and  _177
REMARK   72  A    between atoms: _177  and  _178
REMARK   73  A    between atoms: _177  and  _180
REMARK   74  A    between atoms: _180  and  _181
REMARK   75  A    between atoms: _185  and  _186
REMARK   76  A    between atoms: _191  and  _193
REMARK   77  A    between atoms: _193  and  _194
REMARK   78  A    between atoms: _193  and  _196
REMARK   79  A    between atoms: _199  and  _201
REMARK   80  A    between atoms: _201  and  _202
REMARK   81  A    between atoms: _201  and  _204
REMARK   82  A    between atoms: _204  and  _205
REMARK   83  A    between atoms: _210  and  _212
REMARK   84  A    between atoms: _212  and  _213
REMARK   85  A    between atoms: _212  and  _215
REMARK   86  A    between atoms: _215  and  _216
REMARK   87  A    between atoms: _219  and  _221
REMARK   88  A    between atoms: _221  and  _222
REMARK   89  A    between atoms: _221  and  _224
REMARK   90  A    between atoms: _224  and  _225
REMARK   91  A    between atoms: _228  and  _230
REMARK   92  A    between atoms: _230  and  _231
REMARK   93  A    between atoms: _233  and  _235
REMARK   94  A    between atoms: _235  and  _236
REMARK   95  A    between atoms: _235  and  _238
REMARK   96  A    between atoms: _238  and  _239
REMARK   97  A    between atoms: _239  and  _240
REMARK   98  A    between atoms: _240  and  _241
REMARK   99  A    between atoms: _250  and  _252
REMARK  100  A    between atoms: _252  and  _253
REMARK  101  A    between atoms: _252  and  _255
REMARK  102  A    between atoms: _255  and  _256
REMARK  103  A    between atoms: _261  and  _263
REMARK  104  A    between atoms: _263  and  _264
REMARK  105  A    between atoms: _263  and  _266
REMARK  106  A    between atoms: _266  and  _267
REMARK  107  A    between atoms: _267  and  _268
REMARK  108  A    between atoms: _268  and  _269
REMARK  109  A    between atoms: _278  and  _280
REMARK  110  A    between atoms: _280  and  _281
REMARK  111  A    between atoms: _280  and  _283
REMARK  112  A    between atoms: _283  and  _284
REMARK  113  A    between atoms: _287  and  _289
REMARK  114  A    between atoms: _289  and  _290
REMARK  115  A    between atoms: _289  and  _292
REMARK  116  A    between atoms: _292  and  _293
REMARK  117  A    between atoms: _296  and  _298
REMARK  118  A    between atoms: _298  and  _299
REMARK  119  A    between atoms: _298  and  _301
REMARK  120  A    between atoms: _301  and  _302
REMARK  121  A    between atoms: _305  and  _307
REMARK  122  A    between atoms: _307  and  _308
REMARK  123  A    between atoms: _307  and  _310
REMARK  124  A    between atoms: _310  and  _311
REMARK  125  A    between atoms: _314  and  _316
REMARK  126  A    between atoms: _316  and  _317
REMARK  127  A    between atoms: _319  and  _321
REMARK  128  A    between atoms: _321  and  _322
REMARK  129  A    between atoms: _325  and  _327
REMARK  130  A    between atoms: _327  and  _328
REMARK  131  A    between atoms: _327  and  _330
REMARK  132  A    between atoms: _330  and  _331
REMARK  133  A    between atoms: _334  and  _336
REMARK  134  A    between atoms: _336  and  _337
REMARK  135  A    between atoms: _336  and  _339
REMARK  136  A    between atoms: _339  and  _340
REMARK  137  A    between atoms: _343  and  _345
REMARK  138  A    between atoms: _345  and  _346
REMARK  139  A    between atoms: _345  and  _348
REMARK  140  A    between atoms: _348  and  _349
REMARK  141  A    between atoms: _352  and  _354
REMARK  142  A    between atoms: _354  and  _355
REMARK  143  A    between atoms: _354  and  _357
REMARK  144  A    between atoms: _360  and  _362
REMARK  145  A    between atoms: _362  and  _363
REMARK  146  A    between atoms: _362  and  _365
REMARK  147  A    between atoms: _365  and  _366
REMARK  148  A    between atoms: _366  and  _367
REMARK  149  A    between atoms: _367  and  _368
REMARK  150  A    between atoms: _368  and  _369
REMARK  151  A    between atoms: _373  and  _375
REMARK  152  A    between atoms: _375  and  _376
REMARK  153  A    between atoms: _375  and  _378
REMARK  154  A    between atoms: _378  and  _379
REMARK  155  A    between atoms: _379  and  _380
REMARK  156  A    between atoms: _382  and  _384
REMARK  157  A    between atoms: _384  and  _385
REMARK  158  A    between atoms: _384  and  _387
REMARK  159  A    between atoms: _387  and  _388
REMARK  160  A    between atoms: _391  and  _393
REMARK  161  A    between atoms: _393  and  _394
REMARK  162  A    between atoms: _396  and  _398
REMARK  163  A    between atoms: _398  and  _399
REMARK  164  A    between atoms: _401  and  _403
REMARK  165  A    between atoms: _403  and  _404
REMARK  166  A    between atoms: _403  and  _406
REMARK  167  A    between atoms: _406  and  _407
REMARK  168  A    between atoms: _410  and  _412
REMARK  169  A    between atoms: _412  and  _413
REMARK  170  A    between atoms: _415  and  _417
REMARK  171  A    between atoms: _417  and  _418
REMARK  172  A    between atoms: _420  and  _422
REMARK  173  A    between atoms: _422  and  _423
REMARK  174  A    between atoms: _422  and  _425
REMARK  175  A    between atoms: _425  and  _426
REMARK  176  A    between atoms: _432  and  _434
REMARK  177  A    between atoms: _434  and  _435
REMARK  178  A    between atoms: _434  and  _437
REMARK  179  A    between atoms: _437  and  _438
REMARK  180  A    between atoms: _441  and  _443
REMARK  181  A    between atoms: _443  and  _444
REMARK  182  A    between atoms: _443  and  _446
REMARK  183  A    between atoms: _449  and  _451
REMARK  184  A    between atoms: _451  and  _452
REMARK  185  A    between atoms: _451  and  _454
REMARK  186  A    between atoms: _454  and  _455
REMARK  187  A    between atoms: _458  and  _460
REMARK  188  A    between atoms: _460  and  _461
REMARK  189  A    between atoms: _460  and  _463
REMARK  190  A    between atoms: _463  and  _464
REMARK  191  A    between atoms: _468  and  _469
REMARK  192  A    between atoms: _474  and  _476
REMARK  193  A    between atoms: _476  and  _477
REMARK  194  A    between atoms: _476  and  _479
REMARK  195  A    between atoms: _482  and  _484
REMARK  196  A    between atoms: _484  and  _485
REMARK  197  A    between atoms: _484  and  _487
REMARK  198  A    between atoms: _487  and  _488
REMARK  199  A    between atoms: _493  and  _495
REMARK  200  A    between atoms: _495  and  _496
REMARK  201  A    between atoms: _495  and  _498
REMARK  202  A    between atoms: _498  and  _499
REMARK  203  A    between atoms: _502  and  _504
REMARK  204  A    between atoms: _504  and  _505
REMARK  205  A    between atoms: _504  and  _507
REMARK  206  A    between atoms: _507  and  _508
REMARK  207  A    between atoms: _511  and  _513
REMARK  208  A    between atoms: _513  and  _514
REMARK  209  A    between atoms: _516  and  _518
REMARK  210  A    between atoms: _518  and  _519
REMARK  211  A    between atoms: _518  and  _521
REMARK  212  A    between atoms: _521  and  _522
REMARK  213  A    between atoms: _522  and  _523
REMARK  214  A    between atoms: _523  and  _524
REMARK  215  A    between atoms: _533  and  _535
REMARK  216  A    between atoms: _535  and  _536
REMARK  217  A    between atoms: _535  and  _538
REMARK  218  A    between atoms: _538  and  _539
REMARK                            x       y       z     vdW  Elec       q    Type
REMARK                         _______ _______ _______ _____ _____    ______ ____
ROOT
ATOM      1  O   HOH     1      14.812  20.745  10.822  0.00  0.00    +0.000 OA
ENDROOT
TORSDOF 0
REMARK  Name = ../refined-set-2016/2qhy/2qhy_pocket.pdb
REMARK  218 active torsions:
REMARK  status: ('A' for Active; 'I' for Inactive)
REMARK    1  A    between atoms: _1  and  _3
REMARK    2  A    between atoms: _3  and  _4
REMARK    3  A    between atoms: _3  and  _6
REMARK    4  A    between atoms: _6  and  _7
REMARK    5  A    between atoms: _7  and  _8
REMARK    6  A    between atoms: _8  and  _9
REMARK    7  A    between atoms: _18  and  _20
REMARK    8  A    between atoms: _20  and  _21
REMARK    9  A    between atoms: _20  and  _23
REMARK   10  A    between atoms: _23  and  _24
REMARK   11  A    between atoms: _27  and  _29
REMARK   12  A    between atoms: _29  and  _30
REMARK   13  A    between atoms: _29  and  _32
REMARK   14  A    between atoms: _32  and  _33
REMARK   15  A    between atoms: _36  and  _38
REMARK   16  A    between atoms: _38  and  _39
REMARK   17  A    between atoms: _38  and  _41
REMARK   18  A    between atoms: _41  and  _42
REMARK   19  A    between atoms: _45  and  _47
REMARK   20  A    between atoms: _47  and  _48
REMARK   21  A    between atoms: _47  and  _50
REMARK   22  A    between atoms: _50  and  _51
REMARK   23  A    between atoms: _54  and  _56
REMARK   24  A    between atoms: _56  and  _57
REMARK   25  A    between atoms: _59  and  _61
REMARK   26  A    between atoms: _61  and  _62
REMARK   27  A    between atoms: _65  and  _67
REMARK   28  A    between atoms: _67  and  _68
REMARK   29  A    between atoms: _67  and  _70
REMARK   30  A    between atoms: _70  and  _71
REMARK   31  A    between atoms: _74  and  _76
REMARK   32  A    between atoms: _76  and  _77
REMARK   33  A    between atoms: _76  and  _79
REMARK   34  A    between atoms: _79  and  _80
REMARK   35  A    between atoms: _83  and  _85
REMARK   36  A    between atoms: _85  and  _86
REMARK   37  A    between atoms: _85  and  _88
REMARK   38  A    between atoms: _88  and  _89
REMARK   39  A    between atoms: _92  and  _94
REMARK   40  A    between atoms: _94  and  _95
REMARK   41  A    between atoms: _94  and  _97
REMARK   42  A    between atoms: _100  and  _102
REMARK   43  A    between atoms: _102  and  _103
REMARK   44  A    between atoms: _102  and  _105
REMARK   45  A    between atoms: _105  and  _106
REMARK   46  A    between atoms: _109  and  _111
REMARK   47  A    between atoms: _111  and  _112
REMARK   48  A    between atoms: _114  and  _116
REMARK   49  A    between atoms: _116  and  _117
REMARK   50  A    between atoms: _119  and  _121
REMARK   51  A    between atoms: _121  and  _122
REMARK   52  A    between atoms: _121  and  _124
REMARK   53  A    between atoms: _124  and  _125
REMARK   54  A    between atoms: _128  and  _130
REMARK   55  A    between atoms: _130  and  _131
REMARK   56  A    between atoms: _133  and  _135
REMARK   57  A    between atoms: _135  and  _136
REMARK   58  A    between atoms: _138  and  _140
REMARK   59  A    between atoms: _140  and  _141
REMARK   60  A    between atoms: _140  and  _143
REMARK   61  A    between atoms: _143  and  _144
REMARK   62  A    between atoms: _150  and  _152
REMARK   63  A    between atoms: _152  and  _153
REMARK   64  A    between atoms: _152  and  _155
REMARK   65  A    between atoms: _155  and  _156
REMARK   66  A    between atoms: _159  and  _161
REMARK   67  A    between atoms: _161  and  _162
REMARK   68  A    between atoms: _161  and  _164
REMARK   69  A    between atoms: _164  and  _165
REMARK   70  A    between atoms: _169  and  _170
REMARK   71  A    between atoms: _175  and  _177
REMARK   72  A    between atoms: _177  and  _178
REMARK   73  A    between atoms: _177  and  _180
REMARK   74  A    between atoms: _180  and  _181
REMARK   75  A    between atoms: _185  and  _186
REMARK   76  A    between atoms: _191  and  _193
REMARK   77  A    between atoms: _193  and  _194
REMARK   78  A    between atoms: _193  and  _196
REMARK   79  A    between atoms: _199  and  _201
REMARK   80  A    between atoms: _201  and  _202
REMARK   81  A    between atoms: _201  and  _204
REMARK   82  A    between atoms: _204  and  _205
REMARK   83  A    between atoms: _210  and  _212
REMARK   84  A    between atoms: _212  and  _213
REMARK   85  A    between atoms: _212  and  _215
REMARK   86  A    between atoms: _215  and  _216
REMARK   87  A    between atoms: _219  and  _221
REMARK   88  A    between atoms: _221  and  _222
REMARK   89  A    between atoms: _221  and  _224
REMARK   90  A    between atoms: _224  and  _225
REMARK   91  A    between atoms: _228  and  _230
REMARK   92  A    between atoms: _230  and  _231
REMARK   93  A    between atoms: _233  and  _235
REMARK   94  A    between atoms: _235  and  _236
REMARK   95  A    between atoms: _235  and  _238
REMARK   96  A    between atoms: _238  and  _239
REMARK   97  A    between atoms: _239  and  _240
REMARK   98  A    between atoms: _240  and  _241
REMARK   99  A    between atoms: _250  and  _252
REMARK  100  A    between atoms: _252  and  _253
REMARK  101  A    between atoms: _252  and  _255
REMARK  102  A    between atoms: _255  and  _256
REMARK  103  A    between atoms: _261  and  _263
REMARK  104  A    between atoms: _263  and  _264
REMARK  105  A    between atoms: _263  and  _266
REMARK  106  A    between atoms: _266  and  _267
REMARK  107  A    between atoms: _267  and  _268
REMARK  108  A    between atoms: _268  and  _269
REMARK  109  A    between atoms: _278  and  _280
REMARK  110  A    between atoms: _280  and  _281
REMARK  111  A    between atoms: _280  and  _283
REMARK  112  A    between atoms: _283  and  _284
REMARK  113  A    between atoms: _287  and  _289
REMARK  114  A    between atoms: _289  and  _290
REMARK  115  A    between atoms: _289  and  _292
REMARK  116  A    between atoms: _292  and  _293
REMARK  117  A    between atoms: _296  and  _298
REMARK  118  A    between atoms: _298  and  _299
REMARK  119  A    between atoms: _298  and  _301
REMARK  120  A    between atoms: _301  and  _302
REMARK  121  A    between atoms: _305  and  _307
REMARK  122  A    between atoms: _307  and  _308
REMARK  123  A    between atoms: _307  and  _310
REMARK  124  A    between atoms: _310  and  _311
REMARK  125  A    between atoms: _314  and  _316
REMARK  126  A    between atoms: _316  and  _317
REMARK  127  A    between atoms: _319  and  _321
REMARK  128  A    between atoms: _321  and  _322
REMARK  129  A    between atoms: _325  and  _327
REMARK  130  A    between atoms: _327  and  _328
REMARK  131  A    between atoms: _327  and  _330
REMARK  132  A    between atoms: _330  and  _331
REMARK  133  A    between atoms: _334  and  _336
REMARK  134  A    between atoms: _336  and  _337
REMARK  135  A    between atoms: _336  and  _339
REMARK  136  A    between atoms: _339  and  _340
REMARK  137  A    between atoms: _343  and  _345
REMARK  138  A    between atoms: _345  and  _346
REMARK  139  A    between atoms: _345  and  _348
REMARK  140  A    between atoms: _348  and  _349
REMARK  141  A    between atoms: _352  and  _354
REMARK  142  A    between atoms: _354  and  _355
REMARK  143  A    between atoms: _354  and  _357
REMARK  144  A    between atoms: _360  and  _362
REMARK  145  A    between atoms: _362  and  _363
REMARK  146  A    between atoms: _362  and  _365
REMARK  147  A    between atoms: _365  and  _366
REMARK  148  A    between atoms: _366  and  _367
REMARK  149  A    between atoms: _367  and  _368
REMARK  150  A    between atoms: _368  and  _369
REMARK  151  A    between atoms: _373  and  _375
REMARK  152  A    between atoms: _375  and  _376
REMARK  153  A    between atoms: _375  and  _378
REMARK  154  A    between atoms: _378  and  _379
REMARK  155  A    between atoms: _379  and  _380
REMARK  156  A    between atoms: _382  and  _384
REMARK  157  A    between atoms: _384  and  _385
REMARK  158  A    between atoms: _384  and  _387
REMARK  159  A    between atoms: _387  and  _388
REMARK  160  A    between atoms: _391  and  _393
REMARK  161  A    between atoms: _393  and  _394
REMARK  162  A    between atoms: _396  and  _398
REMARK  163  A    between atoms: _398  and  _399
REMARK  164  A    between atoms: _401  and  _403
REMARK  165  A    between atoms: _403  and  _404
REMARK  166  A    between atoms: _403  and  _406
REMARK  167  A    between atoms: _406  and  _407
REMARK  168  A    between atoms: _410  and  _412
REMARK  169  A    between atoms: _412  and  _413
REMARK  170  A    between atoms: _415  and  _417
REMARK  171  A    between atoms: _417  and  _418
REMARK  172  A    between atoms: _420  and  _422
REMARK  173  A    between atoms: _422  and  _423
REMARK  174  A    between atoms: _422  and  _425
REMARK  175  A    between atoms: _425  and  _426
REMARK  176  A    between atoms: _432  and  _434
REMARK  177  A    between atoms: _434  and  _435
REMARK  178  A    between atoms: _434  and  _437
REMARK  179  A    between atoms: _437  and  _438
REMARK  180  A    between atoms: _441  and  _443
REMARK  181  A    between atoms: _443  and  _444
REMARK  182  A    between atoms: _443  and  _446
REMARK  183  A    between atoms: _449  and  _451
REMARK  184  A    between atoms: _451  and  _452
REMARK  185  A    between atoms: _451  and  _454
REMARK  186  A    between atoms: _454  and  _455
REMARK  187  A    between atoms: _458  and  _460
REMARK  188  A    between atoms: _460  and  _461
REMARK  189  A    between atoms: _460  and  _463
REMARK  190  A    between atoms: _463  and  _464
REMARK  191  A    between atoms: _468  and  _469
REMARK  192  A    between atoms: _474  and  _476
REMARK  193  A    between atoms: _476  and  _477
REMARK  194  A    between atoms: _476  and  _479
REMARK  195  A    between atoms: _482  and  _484
REMARK  196  A    between atoms: _484  and  _485
REMARK  197  A    between atoms: _484  and  _487
REMARK  198  A    between atoms: _487  and  _488
REMARK  199  A    between atoms: _493  and  _495
REMARK  200  A    between atoms: _495  and  _496
REMARK  201  A    between atoms: _495  and  _498
REMARK  202  A    between atoms: _498  and  _499
REMARK  203  A    between atoms: _502  and  _504
REMARK  204  A    between atoms: _504  and  _505
REMARK  205  A    between atoms: _504  and  _507
REMARK  206  A    between atoms: _507  and  _508
REMARK  207  A    between atoms: _511  and  _513
REMARK  208  A    between atoms: _513  and  _514
REMARK  209  A    between atoms: _516  and  _518
REMARK  210  A    between atoms: _518  and  _519
REMARK  211  A    between atoms: _518  and  _521
REMARK  212  A    between atoms: _521  and  _522
REMARK  213  A    between atoms: _522  and  _523
REMARK  214  A    between atoms: _523  and  _524
REMARK  215  A    between atoms: _533  and  _535
REMARK  216  A    between atoms: _535  and  _536
REMARK  217  A    between atoms: _535  and  _538
REMARK  218  A    between atoms: _538  and  _539
REMARK                            x       y       z     vdW  Elec       q    Type
REMARK                         _______ _______ _______ _____ _____    ______ ____
ROOT
ATOM      1  O   HOH     1      16.479  37.662  19.725  0.00  0.00    +0.000 OA
ENDROOT
TORSDOF 0
REMARK  Name = ../refined-set-2016/2qhy/2qhy_pocket.pdb
REMARK  218 active torsions:
REMARK  status: ('A' for Active; 'I' for Inactive)
REMARK    1  A    between atoms: _1  and  _3
REMARK    2  A    between atoms: _3  and  _4
REMARK    3  A    between atoms: _3  and  _6
REMARK    4  A    between atoms: _6  and  _7
REMARK    5  A    between atoms: _7  and  _8
REMARK    6  A    between atoms: _8  and  _9
REMARK    7  A    between atoms: _18  and  _20
REMARK    8  A    between atoms: _20  and  _21
REMARK    9  A    between atoms: _20  and  _23
REMARK   10  A    between atoms: _23  and  _24
REMARK   11  A    between atoms: _27  and  _29
REMARK   12  A    between atoms: _29  and  _30
REMARK   13  A    between atoms: _29  and  _32
REMARK   14  A    between atoms: _32  and  _33
REMARK   15  A    between atoms: _36  and  _38
REMARK   16  A    between atoms: _38  and  _39
REMARK   17  A    between atoms: _38  and  _41
REMARK   18  A    between atoms: _41  and  _42
REMARK   19  A    between atoms: _45  and  _47
REMARK   20  A    between atoms: _47  and  _48
REMARK   21  A    between atoms: _47  and  _50
REMARK   22  A    between atoms: _50  and  _51
REMARK   23  A    between atoms: _54  and  _56
REMARK   24  A    between atoms: _56  and  _57
REMARK   25  A    between atoms: _59  and  _61
REMARK   26  A    between atoms: _61  and  _62
REMARK   27  A    between atoms: _65  and  _67
REMARK   28  A    between atoms: _67  and  _68
REMARK   29  A    between atoms: _67  and  _70
REMARK   30  A    between atoms: _70  and  _71
REMARK   31  A    between atoms: _74  and  _76
REMARK   32  A    between atoms: _76  and  _77
REMARK   33  A    between atoms: _76  and  _79
REMARK   34  A    between atoms: _79  and  _80
REMARK   35  A    between atoms: _83  and  _85
REMARK   36  A    between atoms: _85  and  _86
REMARK   37  A    between atoms: _85  and  _88
REMARK   38  A    between atoms: _88  and  _89
REMARK   39  A    between atoms: _92  and  _94
REMARK   40  A    between atoms: _94  and  _95
REMARK   41  A    between atoms: _94  and  _97
REMARK   42  A    between atoms: _100  and  _102
REMARK   43  A    between atoms: _102  and  _103
REMARK   44  A    between atoms: _102  and  _105
REMARK   45  A    between atoms: _105  and  _106
REMARK   46  A    between atoms: _109  and  _111
REMARK   47  A    between atoms: _111  and  _112
REMARK   48  A    between atoms: _114  and  _116
REMARK   49  A    between atoms: _116  and  _117
REMARK   50  A    between atoms: _119  and  _121
REMARK   51  A    between atoms: _121  and  _122
REMARK   52  A    between atoms: _121  and  _124
REMARK   53  A    between atoms: _124  and  _125
REMARK   54  A    between atoms: _128  and  _130
REMARK   55  A    between atoms: _130  and  _131
REMARK   56  A    between atoms: _133  and  _135
REMARK   57  A    between atoms: _135  and  _136
REMARK   58  A    between atoms: _138  and  _140
REMARK   59  A    between atoms: _140  and  _141
REMARK   60  A    between atoms: _140  and  _143
REMARK   61  A    between atoms: _143  and  _144
REMARK   62  A    between atoms: _150  and  _152
REMARK   63  A    between atoms: _152  and  _153
REMARK   64  A    between atoms: _152  and  _155
REMARK   65  A    between atoms: _155  and  _156
REMARK   66  A    between atoms: _159  and  _161
REMARK   67  A    between atoms: _161  and  _162
REMARK   68  A    between atoms: _161  and  _164
REMARK   69  A    between atoms: _164  and  _165
REMARK   70  A    between atoms: _169  and  _170
REMARK   71  A    between atoms: _175  and  _177
REMARK   72  A    between atoms: _177  and  _178
REMARK   73  A    between atoms: _177  and  _180
REMARK   74  A    between atoms: _180  and  _181
REMARK   75  A    between atoms: _185  and  _186
REMARK   76  A    between atoms: _191  and  _193
REMARK   77  A    between atoms: _193  and  _194
REMARK   78  A    between atoms: _193  and  _196
REMARK   79  A    between atoms: _199  and  _201
REMARK   80  A    between atoms: _201  and  _202
REMARK   81  A    between atoms: _201  and  _204
REMARK   82  A    between atoms: _204  and  _205
REMARK   83  A    between atoms: _210  and  _212
REMARK   84  A    between atoms: _212  and  _213
REMARK   85  A    between atoms: _212  and  _215
REMARK   86  A    between atoms: _215  and  _216
REMARK   87  A    between atoms: _219  and  _221
REMARK   88  A    between atoms: _221  and  _222
REMARK   89  A    between atoms: _221  and  _224
REMARK   90  A    between atoms: _224  and  _225
REMARK   91  A    between atoms: _228  and  _230
REMARK   92  A    between atoms: _230  and  _231
REMARK   93  A    between atoms: _233  and  _235
REMARK   94  A    between atoms: _235  and  _236
REMARK   95  A    between atoms: _235  and  _238
REMARK   96  A    between atoms: _238  and  _239
REMARK   97  A    between atoms: _239  and  _240
REMARK   98  A    between atoms: _240  and  _241
REMARK   99  A    between atoms: _250  and  _252
REMARK  100  A    between atoms: _252  and  _253
REMARK  101  A    between atoms: _252  and  _255
REMARK  102  A    between atoms: _255  and  _256
REMARK  103  A    between atoms: _261  and  _263
REMARK  104  A    between atoms: _263  and  _264
REMARK  105  A    between atoms: _263  and  _266
REMARK  106  A    between atoms: _266  and  _267
REMARK  107  A    between atoms: _267  and  _268
REMARK  108  A    between atoms: _268  and  _269
REMARK  109  A    between atoms: _278  and  _280
REMARK  110  A    between atoms: _280  and  _281
REMARK  111  A    between atoms: _280  and  _283
REMARK  112  A    between atoms: _283  and  _284
REMARK  113  A    between atoms: _287  and  _289
REMARK  114  A    between atoms: _289  and  _290
REMARK  115  A    between atoms: _289  and  _292
REMARK  116  A    between atoms: _292  and  _293
REMARK  117  A    between atoms: _296  and  _298
REMARK  118  A    between atoms: _298  and  _299
REMARK  119  A    between atoms: _298  and  _301
REMARK  120  A    between atoms: _301  and  _302
REMARK  121  A    between atoms: _305  and  _307
REMARK  122  A    between atoms: _307  and  _308
REMARK  123  A    between atoms: _307  and  _310
REMARK  124  A    between atoms: _310  and  _311
REMARK  125  A    between atoms: _314  and  _316
REMARK  126  A    between atoms: _316  and  _317
REMARK  127  A    between atoms: _319  and  _321
REMARK  128  A    between atoms: _321  and  _322
REMARK  129  A    between atoms: _325  and  _327
REMARK  130  A    between atoms: _327  and  _328
REMARK  131  A    between atoms: _327  and  _330
REMARK  132  A    between atoms: _330  and  _331
REMARK  133  A    between atoms: _334  and  _336
REMARK  134  A    between atoms: _336  and  _337
REMARK  135  A    between atoms: _336  and  _339
REMARK  136  A    between atoms: _339  and  _340
REMARK  137  A    between atoms: _343  and  _345
REMARK  138  A    between atoms: _345  and  _346
REMARK  139  A    between atoms: _345  and  _348
REMARK  140  A    between atoms: _348  and  _349
REMARK  141  A    between atoms: _352  and  _354
REMARK  142  A    between atoms: _354  and  _355
REMARK  143  A    between atoms: _354  and  _357
REMARK  144  A    between atoms: _360  and  _362
REMARK  145  A    between atoms: _362  and  _363
REMARK  146  A    between atoms: _362  and  _365
REMARK  147  A    between atoms: _365  and  _366
REMARK  148  A    between atoms: _366  and  _367
REMARK  149  A    between atoms: _367  and  _368
REMARK  150  A    between atoms: _368  and  _369
REMARK  151  A    between atoms: _373  and  _375
REMARK  152  A    between atoms: _375  and  _376
REMARK  153  A    between atoms: _375  and  _378
REMARK  154  A    between atoms: _378  and  _379
REMARK  155  A    between atoms: _379  and  _380
REMARK  156  A    between atoms: _382  and  _384
REMARK  157  A    between atoms: _384  and  _385
REMARK  158  A    between atoms: _384  and  _387
REMARK  159  A    between atoms: _387  and  _388
REMARK  160  A    between atoms: _391  and  _393
REMARK  161  A    between atoms: _393  and  _394
REMARK  162  A    between atoms: _396  and  _398
REMARK  163  A    between atoms: _398  and  _399
REMARK  164  A    between atoms: _401  and  _403
REMARK  165  A    between atoms: _403  and  _404
REMARK  166  A    between atoms: _403  and  _406
REMARK  167  A    between atoms: _406  and  _407
REMARK  168  A    between atoms: _410  and  _412
REMARK  169  A    between atoms: _412  and  _413
REMARK  170  A    between atoms: _415  and  _417
REMARK  171  A    between atoms: _417  and  _418
REMARK  172  A    between atoms: _420  and  _422
REMARK  173  A    between atoms: _422  and  _423
REMARK  174  A    between atoms: _422  and  _425
REMARK  175  A    between atoms: _425  and  _426
REMARK  176  A    between atoms: _432  and  _434
REMARK  177  A    between atoms: _434  and  _435
REMARK  178  A    between atoms: _434  and  _437
REMARK  179  A    between atoms: _437  and  _438
REMARK  180  A    between atoms: _441  and  _443
REMARK  181  A    between atoms: _443  and  _444
REMARK  182  A    between atoms: _443  and  _446
REMARK  183  A    between atoms: _449  and  _451
REMARK  184  A    between atoms: _451  and  _452
REMARK  185  A    between atoms: _451  and  _454
REMARK  186  A    between atoms: _454  and  _455
REMARK  187  A    between atoms: _458  and  _460
REMARK  188  A    between atoms: _460  and  _461
REMARK  189  A    between atoms: _460  and  _463
REMARK  190  A    between atoms: _463  and  _464
REMARK  191  A    between atoms: _468  and  _469
REMARK  192  A    between atoms: _474  and  _476
REMARK  193  A    between atoms: _476  and  _477
REMARK  194  A    between atoms: _476  and  _479
REMARK  195  A    between atoms: _482  and  _484
REMARK  196  A    between atoms: _484  and  _485
REMARK  197  A    between atoms: _484  and  _487
REMARK  198  A    between atoms: _487  and  _488
REMARK  199  A    between atoms: _493  and  _495
REMARK  200  A    between atoms: _495  and  _496
REMARK  201  A    between atoms: _495  and  _498
REMARK  202  A    between atoms: _498  and  _499
REMARK  203  A    between atoms: _502  and  _504
REMARK  204  A    between atoms: _504  and  _505
REMARK  205  A    between atoms: _504  and  _507
REMARK  206  A    between atoms: _507  and  _508
REMARK  207  A    between atoms: _511  and  _513
REMARK  208  A    between atoms: _513  and  _514
REMARK  209  A    between atoms: _516  and  _518
REMARK  210  A    between atoms: _518  and  _519
REMARK  211  A    between atoms: _518  and  _521
REMARK  212  A    between atoms: _521  and  _522
REMARK  213  A    between atoms: _522  and  _523
REMARK  214  A    between atoms: _523  and  _524
REMARK  215  A    between atoms: _533  and  _535
REMARK  216  A    between atoms: _535  and  _536
REMARK  217  A    between atoms: _535  and  _538
REMARK  218  A    between atoms: _538  and  _539
REMARK                            x       y       z     vdW  Elec       q    Type
REMARK                         _______ _______ _______ _____ _____    ______ ____
ROOT
ATOM      1  O   HOH     1      15.615  43.376  16.141  0.00  0.00    +0.000 OA
ENDROOT
TORSDOF 0
REMARK  Name = ../refined-set-2016/2qhy/2qhy_pocket.pdb
REMARK  218 active torsions:
REMARK  status: ('A' for Active; 'I' for Inactive)
REMARK    1  A    between atoms: _1  and  _3
REMARK    2  A    between atoms: _3  and  _4
REMARK    3  A    between atoms: _3  and  _6
REMARK    4  A    between atoms: _6  and  _7
REMARK    5  A    between atoms: _7  and  _8
REMARK    6  A    between atoms: _8  and  _9
REMARK    7  A    between atoms: _18  and  _20
REMARK    8  A    between atoms: _20  and  _21
REMARK    9  A    between atoms: _20  and  _23
REMARK   10  A    between atoms: _23  and  _24
REMARK   11  A    between atoms: _27  and  _29
REMARK   12  A    between atoms: _29  and  _30
REMARK   13  A    between atoms: _29  and  _32
REMARK   14  A    between atoms: _32  and  _33
REMARK   15  A    between atoms: _36  and  _38
REMARK   16  A    between atoms: _38  and  _39
REMARK   17  A    between atoms: _38  and  _41
REMARK   18  A    between atoms: _41  and  _42
REMARK   19  A    between atoms: _45  and  _47
REMARK   20  A    between atoms: _47  and  _48
REMARK   21  A    between atoms: _47  and  _50
REMARK   22  A    between atoms: _50  and  _51
REMARK   23  A    between atoms: _54  and  _56
REMARK   24  A    between atoms: _56  and  _57
REMARK   25  A    between atoms: _59  and  _61
REMARK   26  A    between atoms: _61  and  _62
REMARK   27  A    between atoms: _65  and  _67
REMARK   28  A    between atoms: _67  and  _68
REMARK   29  A    between atoms: _67  and  _70
REMARK   30  A    between atoms: _70  and  _71
REMARK   31  A    between atoms: _74  and  _76
REMARK   32  A    between atoms: _76  and  _77
REMARK   33  A    between atoms: _76  and  _79
REMARK   34  A    between atoms: _79  and  _80
REMARK   35  A    between atoms: _83  and  _85
REMARK   36  A    between atoms: _85  and  _86
REMARK   37  A    between atoms: _85  and  _88
REMARK   38  A    between atoms: _88  and  _89
REMARK   39  A    between atoms: _92  and  _94
REMARK   40  A    between atoms: _94  and  _95
REMARK   41  A    between atoms: _94  and  _97
REMARK   42  A    between atoms: _100  and  _102
REMARK   43  A    between atoms: _102  and  _103
REMARK   44  A    between atoms: _102  and  _105
REMARK   45  A    between atoms: _105  and  _106
REMARK   46  A    between atoms: _109  and  _111
REMARK   47  A    between atoms: _111  and  _112
REMARK   48  A    between atoms: _114  and  _116
REMARK   49  A    between atoms: _116  and  _117
REMARK   50  A    between atoms: _119  and  _121
REMARK   51  A    between atoms: _121  and  _122
REMARK   52  A    between atoms: _121  and  _124
REMARK   53  A    between atoms: _124  and  _125
REMARK   54  A    between atoms: _128  and  _130
REMARK   55  A    between atoms: _130  and  _131
REMARK   56  A    between atoms: _133  and  _135
REMARK   57  A    between atoms: _135  and  _136
REMARK   58  A    between atoms: _138  and  _140
REMARK   59  A    between atoms: _140  and  _141
REMARK   60  A    between atoms: _140  and  _143
REMARK   61  A    between atoms: _143  and  _144
REMARK   62  A    between atoms: _150  and  _152
REMARK   63  A    between atoms: _152  and  _153
REMARK   64  A    between atoms: _152  and  _155
REMARK   65  A    between atoms: _155  and  _156
REMARK   66  A    between atoms: _159  and  _161
REMARK   67  A    between atoms: _161  and  _162
REMARK   68  A    between atoms: _161  and  _164
REMARK   69  A    between atoms: _164  and  _165
REMARK   70  A    between atoms: _169  and  _170
REMARK   71  A    between atoms: _175  and  _177
REMARK   72  A    between atoms: _177  and  _178
REMARK   73  A    between atoms: _177  and  _180
REMARK   74  A    between atoms: _180  and  _181
REMARK   75  A    between atoms: _185  and  _186
REMARK   76  A    between atoms: _191  and  _193
REMARK   77  A    between atoms: _193  and  _194
REMARK   78  A    between atoms: _193  and  _196
REMARK   79  A    between atoms: _199  and  _201
REMARK   80  A    between atoms: _201  and  _202
REMARK   81  A    between atoms: _201  and  _204
REMARK   82  A    between atoms: _204  and  _205
REMARK   83  A    between atoms: _210  and  _212
REMARK   84  A    between atoms: _212  and  _213
REMARK   85  A    between atoms: _212  and  _215
REMARK   86  A    between atoms: _215  and  _216
REMARK   87  A    between atoms: _219  and  _221
REMARK   88  A    between atoms: _221  and  _222
REMARK   89  A    between atoms: _221  and  _224
REMARK   90  A    between atoms: _224  and  _225
REMARK   91  A    between atoms: _228  and  _230
REMARK   92  A    between atoms: _230  and  _231
REMARK   93  A    between atoms: _233  and  _235
REMARK   94  A    between atoms: _235  and  _236
REMARK   95  A    between atoms: _235  and  _238
REMARK   96  A    between atoms: _238  and  _239
REMARK   97  A    between atoms: _239  and  _240
REMARK   98  A    between atoms: _240  and  _241
REMARK   99  A    between atoms: _250  and  _252
REMARK  100  A    between atoms: _252  and  _253
REMARK  101  A    between atoms: _252  and  _255
REMARK  102  A    between atoms: _255  and  _256
REMARK  103  A    between atoms: _261  and  _263
REMARK  104  A    between atoms: _263  and  _264
REMARK  105  A    between atoms: _263  and  _266
REMARK  106  A    between atoms: _266  and  _267
REMARK  107  A    between atoms: _267  and  _268
REMARK  108  A    between atoms: _268  and  _269
REMARK  109  A    between atoms: _278  and  _280
REMARK  110  A    between atoms: _280  and  _281
REMARK  111  A    between atoms: _280  and  _283
REMARK  112  A    between atoms: _283  and  _284
REMARK  113  A    between atoms: _287  and  _289
REMARK  114  A    between atoms: _289  and  _290
REMARK  115  A    between atoms: _289  and  _292
REMARK  116  A    between atoms: _292  and  _293
REMARK  117  A    between atoms: _296  and  _298
REMARK  118  A    between atoms: _298  and  _299
REMARK  119  A    between atoms: _298  and  _301
REMARK  120  A    between atoms: _301  and  _302
REMARK  121  A    between atoms: _305  and  _307
REMARK  122  A    between atoms: _307  and  _308
REMARK  123  A    between atoms: _307  and  _310
REMARK  124  A    between atoms: _310  and  _311
REMARK  125  A    between atoms: _314  and  _316
REMARK  126  A    between atoms: _316  and  _317
REMARK  127  A    between atoms: _319  and  _321
REMARK  128  A    between atoms: _321  and  _322
REMARK  129  A    between atoms: _325  and  _327
REMARK  130  A    between atoms: _327  and  _328
REMARK  131  A    between atoms: _327  and  _330
REMARK  132  A    between atoms: _330  and  _331
REMARK  133  A    between atoms: _334  and  _336
REMARK  134  A    between atoms: _336  and  _337
REMARK  135  A    between atoms: _336  and  _339
REMARK  136  A    between atoms: _339  and  _340
REMARK  137  A    between atoms: _343  and  _345
REMARK  138  A    between atoms: _345  and  _346
REMARK  139  A    between atoms: _345  and  _348
REMARK  140  A    between atoms: _348  and  _349
REMARK  141  A    between atoms: _352  and  _354
REMARK  142  A    between atoms: _354  and  _355
REMARK  143  A    between atoms: _354  and  _357
REMARK  144  A    between atoms: _360  and  _362
REMARK  145  A    between atoms: _362  and  _363
REMARK  146  A    between atoms: _362  and  _365
REMARK  147  A    between atoms: _365  and  _366
REMARK  148  A    between atoms: _366  and  _367
REMARK  149  A    between atoms: _367  and  _368
REMARK  150  A    between atoms: _368  and  _369
REMARK  151  A    between atoms: _373  and  _375
REMARK  152  A    between atoms: _375  and  _376
REMARK  153  A    between atoms: _375  and  _378
REMARK  154  A    between atoms: _378  and  _379
REMARK  155  A    between atoms: _379  and  _380
REMARK  156  A    between atoms: _382  and  _384
REMARK  157  A    between atoms: _384  and  _385
REMARK  158  A    between atoms: _384  and  _387
REMARK  159  A    between atoms: _387  and  _388
REMARK  160  A    between atoms: _391  and  _393
REMARK  161  A    between atoms: _393  and  _394
REMARK  162  A    between atoms: _396  and  _398
REMARK  163  A    between atoms: _398  and  _399
REMARK  164  A    between atoms: _401  and  _403
REMARK  165  A    between atoms: _403  and  _404
REMARK  166  A    between atoms: _403  and  _406
REMARK  167  A    between atoms: _406  and  _407
REMARK  168  A    between atoms: _410  and  _412
REMARK  169  A    between atoms: _412  and  _413
REMARK  170  A    between atoms: _415  and  _417
REMARK  171  A    between atoms: _417  and  _418
REMARK  172  A    between atoms: _420  and  _422
REMARK  173  A    between atoms: _422  and  _423
REMARK  174  A    between atoms: _422  and  _425
REMARK  175  A    between atoms: _425  and  _426
REMARK  176  A    between atoms: _432  and  _434
REMARK  177  A    between atoms: _434  and  _435
REMARK  178  A    between atoms: _434  and  _437
REMARK  179  A    between atoms: _437  and  _438
REMARK  180  A    between atoms: _441  and  _443
REMARK  181  A    between atoms: _443  and  _444
REMARK  182  A    between atoms: _443  and  _446
REMARK  183  A    between atoms: _449  and  _451
REMARK  184  A    between atoms: _451  and  _452
REMARK  185  A    between atoms: _451  and  _454
REMARK  186  A    between atoms: _454  and  _455
REMARK  187  A    between atoms: _458  and  _460
REMARK  188  A    between atoms: _460  and  _461
REMARK  189  A    between atoms: _460  and  _463
REMARK  190  A    between atoms: _463  and  _464
REMARK  191  A    between atoms: _468  and  _469
REMARK  192  A    between atoms: _474  and  _476
REMARK  193  A    between atoms: _476  and  _477
REMARK  194  A    between atoms: _476  and  _479
REMARK  195  A    between atoms: _482  and  _484
REMARK  196  A    between atoms: _484  and  _485
REMARK  197  A    between atoms: _484  and  _487
REMARK  198  A    between atoms: _487  and  _488
REMARK  199  A    between atoms: _493  and  _495
REMARK  200  A    between atoms: _495  and  _496
REMARK  201  A    between atoms: _495  and  _498
REMARK  202  A    between atoms: _498  and  _499
REMARK  203  A    between atoms: _502  and  _504
REMARK  204  A    between atoms: _504  and  _505
REMARK  205  A    between atoms: _504  and  _507
REMARK  206  A    between atoms: _507  and  _508
REMARK  207  A    between atoms: _511  and  _513
REMARK  208  A    between atoms: _513  and  _514
REMARK  209  A    between atoms: _516  and  _518
REMARK  210  A    between atoms: _518  and  _519
REMARK  211  A    between atoms: _518  and  _521
REMARK  212  A    between atoms: _521  and  _522
REMARK  213  A    between atoms: _522  and  _523
REMARK  214  A    between atoms: _523  and  _524
REMARK  215  A    between atoms: _533  and  _535
REMARK  216  A    between atoms: _535  and  _536
REMARK  217  A    between atoms: _535  and  _538
REMARK  218  A    between atoms: _538  and  _539
REMARK                            x       y       z     vdW  Elec       q    Type
REMARK                         _______ _______ _______ _____ _____    ______ ____
ROOT
ATOM      1  O   HOH     1      16.718  23.998   7.494  0.00  0.00    +0.000 OA
ENDROOT
TORSDOF 0
REMARK  Name = ../refined-set-2016/2qhy/2qhy_pocket.pdb
REMARK  218 active torsions:
REMARK  status: ('A' for Active; 'I' for Inactive)
REMARK    1  A    between atoms: _1  and  _3
REMARK    2  A    between atoms: _3  and  _4
REMARK    3  A    between atoms: _3  and  _6
REMARK    4  A    between atoms: _6  and  _7
REMARK    5  A    between atoms: _7  and  _8
REMARK    6  A    between atoms: _8  and  _9
REMARK    7  A    between atoms: _18  and  _20
REMARK    8  A    between atoms: _20  and  _21
REMARK    9  A    between atoms: _20  and  _23
REMARK   10  A    between atoms: _23  and  _24
REMARK   11  A    between atoms: _27  and  _29
REMARK   12  A    between atoms: _29  and  _30
REMARK   13  A    between atoms: _29  and  _32
REMARK   14  A    between atoms: _32  and  _33
REMARK   15  A    between atoms: _36  and  _38
REMARK   16  A    between atoms: _38  and  _39
REMARK   17  A    between atoms: _38  and  _41
REMARK   18  A    between atoms: _41  and  _42
REMARK   19  A    between atoms: _45  and  _47
REMARK   20  A    between atoms: _47  and  _48
REMARK   21  A    between atoms: _47  and  _50
REMARK   22  A    between atoms: _50  and  _51
REMARK   23  A    between atoms: _54  and  _56
REMARK   24  A    between atoms: _56  and  _57
REMARK   25  A    between atoms: _59  and  _61
REMARK   26  A    between atoms: _61  and  _62
REMARK   27  A    between atoms: _65  and  _67
REMARK   28  A    between atoms: _67  and  _68
REMARK   29  A    between atoms: _67  and  _70
REMARK   30  A    between atoms: _70  and  _71
REMARK   31  A    between atoms: _74  and  _76
REMARK   32  A    between atoms: _76  and  _77
REMARK   33  A    between atoms: _76  and  _79
REMARK   34  A    between atoms: _79  and  _80
REMARK   35  A    between atoms: _83  and  _85
REMARK   36  A    between atoms: _85  and  _86
REMARK   37  A    between atoms: _85  and  _88
REMARK   38  A    between atoms: _88  and  _89
REMARK   39  A    between atoms: _92  and  _94
REMARK   40  A    between atoms: _94  and  _95
REMARK   41  A    between atoms: _94  and  _97
REMARK   42  A    between atoms: _100  and  _102
REMARK   43  A    between atoms: _102  and  _103
REMARK   44  A    between atoms: _102  and  _105
REMARK   45  A    between atoms: _105  and  _106
REMARK   46  A    between atoms: _109  and  _111
REMARK   47  A    between atoms: _111  and  _112
REMARK   48  A    between atoms: _114  and  _116
REMARK   49  A    between atoms: _116  and  _117
REMARK   50  A    between atoms: _119  and  _121
REMARK   51  A    between atoms: _121  and  _122
REMARK   52  A    between atoms: _121  and  _124
REMARK   53  A    between atoms: _124  and  _125
REMARK   54  A    between atoms: _128  and  _130
REMARK   55  A    between atoms: _130  and  _131
REMARK   56  A    between atoms: _133  and  _135
REMARK   57  A    between atoms: _135  and  _136
REMARK   58  A    between atoms: _138  and  _140
REMARK   59  A    between atoms: _140  and  _141
REMARK   60  A    between atoms: _140  and  _143
REMARK   61  A    between atoms: _143  and  _144
REMARK   62  A    between atoms: _150  and  _152
REMARK   63  A    between atoms: _152  and  _153
REMARK   64  A    between atoms: _152  and  _155
REMARK   65  A    between atoms: _155  and  _156
REMARK   66  A    between atoms: _159  and  _161
REMARK   67  A    between atoms: _161  and  _162
REMARK   68  A    between atoms: _161  and  _164
REMARK   69  A    between atoms: _164  and  _165
REMARK   70  A    between atoms: _169  and  _170
REMARK   71  A    between atoms: _175  and  _177
REMARK   72  A    between atoms: _177  and  _178
REMARK   73  A    between atoms: _177  and  _180
REMARK   74  A    between atoms: _180  and  _181
REMARK   75  A    between atoms: _185  and  _186
REMARK   76  A    between atoms: _191  and  _193
REMARK   77  A    between atoms: _193  and  _194
REMARK   78  A    between atoms: _193  and  _196
REMARK   79  A    between atoms: _199  and  _201
REMARK   80  A    between atoms: _201  and  _202
REMARK   81  A    between atoms: _201  and  _204
REMARK   82  A    between atoms: _204  and  _205
REMARK   83  A    between atoms: _210  and  _212
REMARK   84  A    between atoms: _212  and  _213
REMARK   85  A    between atoms: _212  and  _215
REMARK   86  A    between atoms: _215  and  _216
REMARK   87  A    between atoms: _219  and  _221
REMARK   88  A    between atoms: _221  and  _222
REMARK   89  A    between atoms: _221  and  _224
REMARK   90  A    between atoms: _224  and  _225
REMARK   91  A    between atoms: _228  and  _230
REMARK   92  A    between atoms: _230  and  _231
REMARK   93  A    between atoms: _233  and  _235
REMARK   94  A    between atoms: _235  and  _236
REMARK   95  A    between atoms: _235  and  _238
REMARK   96  A    between atoms: _238  and  _239
REMARK   97  A    between atoms: _239  and  _240
REMARK   98  A    between atoms: _240  and  _241
REMARK   99  A    between atoms: _250  and  _252
REMARK  100  A    between atoms: _252  and  _253
REMARK  101  A    between atoms: _252  and  _255
REMARK  102  A    between atoms: _255  and  _256
REMARK  103  A    between atoms: _261  and  _263
REMARK  104  A    between atoms: _263  and  _264
REMARK  105  A    between atoms: _263  and  _266
REMARK  106  A    between atoms: _266  and  _267
REMARK  107  A    between atoms: _267  and  _268
REMARK  108  A    between atoms: _268  and  _269
REMARK  109  A    between atoms: _278  and  _280
REMARK  110  A    between atoms: _280  and  _281
REMARK  111  A    between atoms: _280  and  _283
REMARK  112  A    between atoms: _283  and  _284
REMARK  113  A    between atoms: _287  and  _289
REMARK  114  A    between atoms: _289  and  _290
REMARK  115  A    between atoms: _289  and  _292
REMARK  116  A    between atoms: _292  and  _293
REMARK  117  A    between atoms: _296  and  _298
REMARK  118  A    between atoms: _298  and  _299
REMARK  119  A    between atoms: _298  and  _301
REMARK  120  A    between atoms: _301  and  _302
REMARK  121  A    between atoms: _305  and  _307
REMARK  122  A    between atoms: _307  and  _308
REMARK  123  A    between atoms: _307  and  _310
REMARK  124  A    between atoms: _310  and  _311
REMARK  125  A    between atoms: _314  and  _316
REMARK  126  A    between atoms: _316  and  _317
REMARK  127  A    between atoms: _319  and  _321
REMARK  128  A    between atoms: _321  and  _322
REMARK  129  A    between atoms: _325  and  _327
REMARK  130  A    between atoms: _327  and  _328
REMARK  131  A    between atoms: _327  and  _330
REMARK  132  A    between atoms: _330  and  _331
REMARK  133  A    between atoms: _334  and  _336
REMARK  134  A    between atoms: _336  and  _337
REMARK  135  A    between atoms: _336  and  _339
REMARK  136  A    between atoms: _339  and  _340
REMARK  137  A    between atoms: _343  and  _345
REMARK  138  A    between atoms: _345  and  _346
REMARK  139  A    between atoms: _345  and  _348
REMARK  140  A    between atoms: _348  and  _349
REMARK  141  A    between atoms: _352  and  _354
REMARK  142  A    between atoms: _354  and  _355
REMARK  143  A    between atoms: _354  and  _357
REMARK  144  A    between atoms: _360  and  _362
REMARK  145  A    between atoms: _362  and  _363
REMARK  146  A    between atoms: _362  and  _365
REMARK  147  A    between atoms: _365  and  _366
REMARK  148  A    between atoms: _366  and  _367
REMARK  149  A    between atoms: _367  and  _368
REMARK  150  A    between atoms: _368  and  _369
REMARK  151  A    between atoms: _373  and  _375
REMARK  152  A    between atoms: _375  and  _376
REMARK  153  A    between atoms: _375  and  _378
REMARK  154  A    between atoms: _378  and  _379
REMARK  155  A    between atoms: _379  and  _380
REMARK  156  A    between atoms: _382  and  _384
REMARK  157  A    between atoms: _384  and  _385
REMARK  158  A    between atoms: _384  and  _387
REMARK  159  A    between atoms: _387  and  _388
REMARK  160  A    between atoms: _391  and  _393
REMARK  161  A    between atoms: _393  and  _394
REMARK  162  A    between atoms: _396  and  _398
REMARK  163  A    between atoms: _398  and  _399
REMARK  164  A    between atoms: _401  and  _403
REMARK  165  A    between atoms: _403  and  _404
REMARK  166  A    between atoms: _403  and  _406
REMARK  167  A    between atoms: _406  and  _407
REMARK  168  A    between atoms: _410  and  _412
REMARK  169  A    between atoms: _412  and  _413
REMARK  170  A    between atoms: _415  and  _417
REMARK  171  A    between atoms: _417  and  _418
REMARK  172  A    between atoms: _420  and  _422
REMARK  173  A    between atoms: _422  and  _423
REMARK  174  A    between atoms: _422  and  _425
REMARK  175  A    between atoms: _425  and  _426
REMARK  176  A    between atoms: _432  and  _434
REMARK  177  A    between atoms: _434  and  _435
REMARK  178  A    between atoms: _434  and  _437
REMARK  179  A    between atoms: _437  and  _438
REMARK  180  A    between atoms: _441  and  _443
REMARK  181  A    between atoms: _443  and  _444
REMARK  182  A    between atoms: _443  and  _446
REMARK  183  A    between atoms: _449  and  _451
REMARK  184  A    between atoms: _451  and  _452
REMARK  185  A    between atoms: _451  and  _454
REMARK  186  A    between atoms: _454  and  _455
REMARK  187  A    between atoms: _458  and  _460
REMARK  188  A    between atoms: _460  and  _461
REMARK  189  A    between atoms: _460  and  _463
REMARK  190  A    between atoms: _463  and  _464
REMARK  191  A    between atoms: _468  and  _469
REMARK  192  A    between atoms: _474  and  _476
REMARK  193  A    between atoms: _476  and  _477
REMARK  194  A    between atoms: _476  and  _479
REMARK  195  A    between atoms: _482  and  _484
REMARK  196  A    between atoms: _484  and  _485
REMARK  197  A    between atoms: _484  and  _487
REMARK  198  A    between atoms: _487  and  _488
REMARK  199  A    between atoms: _493  and  _495
REMARK  200  A    between atoms: _495  and  _496
REMARK  201  A    between atoms: _495  and  _498
REMARK  202  A    between atoms: _498  and  _499
REMARK  203  A    between atoms: _502  and  _504
REMARK  204  A    between atoms: _504  and  _505
REMARK  205  A    between atoms: _504  and  _507
REMARK  206  A    between atoms: _507  and  _508
REMARK  207  A    between atoms: _511  and  _513
REMARK  208  A    between atoms: _513  and  _514
REMARK  209  A    between atoms: _516  and  _518
REMARK  210  A    between atoms: _518  and  _519
REMARK  211  A    between atoms: _518  and  _521
REMARK  212  A    between atoms: _521  and  _522
REMARK  213  A    between atoms: _522  and  _523
REMARK  214  A    between atoms: _523  and  _524
REMARK  215  A    between atoms: _533  and  _535
REMARK  216  A    between atoms: _535  and  _536
REMARK  217  A    between atoms: _535  and  _538
REMARK  218  A    between atoms: _538  and  _539
REMARK                            x       y       z     vdW  Elec       q    Type
REMARK                         _______ _______ _______ _____ _____    ______ ____
ROOT
ATOM      1  O   HOH     1      10.411  36.430  23.544  0.00  0.00    +0.000 OA
ENDROOT
TORSDOF 0
REMARK  Name = ../refined-set-2016/2qhy/2qhy_pocket.pdb
REMARK  218 active torsions:
REMARK  status: ('A' for Active; 'I' for Inactive)
REMARK    1  A    between atoms: _1  and  _3
REMARK    2  A    between atoms: _3  and  _4
REMARK    3  A    between atoms: _3  and  _6
REMARK    4  A    between atoms: _6  and  _7
REMARK    5  A    between atoms: _7  and  _8
REMARK    6  A    between atoms: _8  and  _9
REMARK    7  A    between atoms: _18  and  _20
REMARK    8  A    between atoms: _20  and  _21
REMARK    9  A    between atoms: _20  and  _23
REMARK   10  A    between atoms: _23  and  _24
REMARK   11  A    between atoms: _27  and  _29
REMARK   12  A    between atoms: _29  and  _30
REMARK   13  A    between atoms: _29  and  _32
REMARK   14  A    between atoms: _32  and  _33
REMARK   15  A    between atoms: _36  and  _38
REMARK   16  A    between atoms: _38  and  _39
REMARK   17  A    between atoms: _38  and  _41
REMARK   18  A    between atoms: _41  and  _42
REMARK   19  A    between atoms: _45  and  _47
REMARK   20  A    between atoms: _47  and  _48
REMARK   21  A    between atoms: _47  and  _50
REMARK   22  A    between atoms: _50  and  _51
REMARK   23  A    between atoms: _54  and  _56
REMARK   24  A    between atoms: _56  and  _57
REMARK   25  A    between atoms: _59  and  _61
REMARK   26  A    between atoms: _61  and  _62
REMARK   27  A    between atoms: _65  and  _67
REMARK   28  A    between atoms: _67  and  _68
REMARK   29  A    between atoms: _67  and  _70
REMARK   30  A    between atoms: _70  and  _71
REMARK   31  A    between atoms: _74  and  _76
REMARK   32  A    between atoms: _76  and  _77
REMARK   33  A    between atoms: _76  and  _79
REMARK   34  A    between atoms: _79  and  _80
REMARK   35  A    between atoms: _83  and  _85
REMARK   36  A    between atoms: _85  and  _86
REMARK   37  A    between atoms: _85  and  _88
REMARK   38  A    between atoms: _88  and  _89
REMARK   39  A    between atoms: _92  and  _94
REMARK   40  A    between atoms: _94  and  _95
REMARK   41  A    between atoms: _94  and  _97
REMARK   42  A    between atoms: _100  and  _102
REMARK   43  A    between atoms: _102  and  _103
REMARK   44  A    between atoms: _102  and  _105
REMARK   45  A    between atoms: _105  and  _106
REMARK   46  A    between atoms: _109  and  _111
REMARK   47  A    between atoms: _111  and  _112
REMARK   48  A    between atoms: _114  and  _116
REMARK   49  A    between atoms: _116  and  _117
REMARK   50  A    between atoms: _119  and  _121
REMARK   51  A    between atoms: _121  and  _122
REMARK   52  A    between atoms: _121  and  _124
REMARK   53  A    between atoms: _124  and  _125
REMARK   54  A    between atoms: _128  and  _130
REMARK   55  A    between atoms: _130  and  _131
REMARK   56  A    between atoms: _133  and  _135
REMARK   57  A    between atoms: _135  and  _136
REMARK   58  A    between atoms: _138  and  _140
REMARK   59  A    between atoms: _140  and  _141
REMARK   60  A    between atoms: _140  and  _143
REMARK   61  A    between atoms: _143  and  _144
REMARK   62  A    between atoms: _150  and  _152
REMARK   63  A    between atoms: _152  and  _153
REMARK   64  A    between atoms: _152  and  _155
REMARK   65  A    between atoms: _155  and  _156
REMARK   66  A    between atoms: _159  and  _161
REMARK   67  A    between atoms: _161  and  _162
REMARK   68  A    between atoms: _161  and  _164
REMARK   69  A    between atoms: _164  and  _165
REMARK   70  A    between atoms: _169  and  _170
REMARK   71  A    between atoms: _175  and  _177
REMARK   72  A    between atoms: _177  and  _178
REMARK   73  A    between atoms: _177  and  _180
REMARK   74  A    between atoms: _180  and  _181
REMARK   75  A    between atoms: _185  and  _186
REMARK   76  A    between atoms: _191  and  _193
REMARK   77  A    between atoms: _193  and  _194
REMARK   78  A    between atoms: _193  and  _196
REMARK   79  A    between atoms: _199  and  _201
REMARK   80  A    between atoms: _201  and  _202
REMARK   81  A    between atoms: _201  and  _204
REMARK   82  A    between atoms: _204  and  _205
REMARK   83  A    between atoms: _210  and  _212
REMARK   84  A    between atoms: _212  and  _213
REMARK   85  A    between atoms: _212  and  _215
REMARK   86  A    between atoms: _215  and  _216
REMARK   87  A    between atoms: _219  and  _221
REMARK   88  A    between atoms: _221  and  _222
REMARK   89  A    between atoms: _221  and  _224
REMARK   90  A    between atoms: _224  and  _225
REMARK   91  A    between atoms: _228  and  _230
REMARK   92  A    between atoms: _230  and  _231
REMARK   93  A    between atoms: _233  and  _235
REMARK   94  A    between atoms: _235  and  _236
REMARK   95  A    between atoms: _235  and  _238
REMARK   96  A    between atoms: _238  and  _239
REMARK   97  A    between atoms: _239  and  _240
REMARK   98  A    between atoms: _240  and  _241
REMARK   99  A    between atoms: _250  and  _252
REMARK  100  A    between atoms: _252  and  _253
REMARK  101  A    between atoms: _252  and  _255
REMARK  102  A    between atoms: _255  and  _256
REMARK  103  A    between atoms: _261  and  _263
REMARK  104  A    between atoms: _263  and  _264
REMARK  105  A    between atoms: _263  and  _266
REMARK  106  A    between atoms: _266  and  _267
REMARK  107  A    between atoms: _267  and  _268
REMARK  108  A    between atoms: _268  and  _269
REMARK  109  A    between atoms: _278  and  _280
REMARK  110  A    between atoms: _280  and  _281
REMARK  111  A    between atoms: _280  and  _283
REMARK  112  A    between atoms: _283  and  _284
REMARK  113  A    between atoms: _287  and  _289
REMARK  114  A    between atoms: _289  and  _290
REMARK  115  A    between atoms: _289  and  _292
REMARK  116  A    between atoms: _292  and  _293
REMARK  117  A    between atoms: _296  and  _298
REMARK  118  A    between atoms: _298  and  _299
REMARK  119  A    between atoms: _298  and  _301
REMARK  120  A    between atoms: _301  and  _302
REMARK  121  A    between atoms: _305  and  _307
REMARK  122  A    between atoms: _307  and  _308
REMARK  123  A    between atoms: _307  and  _310
REMARK  124  A    between atoms: _310  and  _311
REMARK  125  A    between atoms: _314  and  _316
REMARK  126  A    between atoms: _316  and  _317
REMARK  127  A    between atoms: _319  and  _321
REMARK  128  A    between atoms: _321  and  _322
REMARK  129  A    between atoms: _325  and  _327
REMARK  130  A    between atoms: _327  and  _328
REMARK  131  A    between atoms: _327  and  _330
REMARK  132  A    between atoms: _330  and  _331
REMARK  133  A    between atoms: _334  and  _336
REMARK  134  A    between atoms: _336  and  _337
REMARK  135  A    between atoms: _336  and  _339
REMARK  136  A    between atoms: _339  and  _340
REMARK  137  A    between atoms: _343  and  _345
REMARK  138  A    between atoms: _345  and  _346
REMARK  139  A    between atoms: _345  and  _348
REMARK  140  A    between atoms: _348  and  _349
REMARK  141  A    between atoms: _352  and  _354
REMARK  142  A    between atoms: _354  and  _355
REMARK  143  A    between atoms: _354  and  _357
REMARK  144  A    between atoms: _360  and  _362
REMARK  145  A    between atoms: _362  and  _363
REMARK  146  A    between atoms: _362  and  _365
REMARK  147  A    between atoms: _365  and  _366
REMARK  148  A    between atoms: _366  and  _367
REMARK  149  A    between atoms: _367  and  _368
REMARK  150  A    between atoms: _368  and  _369
REMARK  151  A    between atoms: _373  and  _375
REMARK  152  A    between atoms: _375  and  _376
REMARK  153  A    between atoms: _375  and  _378
REMARK  154  A    between atoms: _378  and  _379
REMARK  155  A    between atoms: _379  and  _380
REMARK  156  A    between atoms: _382  and  _384
REMARK  157  A    between atoms: _384  and  _385
REMARK  158  A    between atoms: _384  and  _387
REMARK  159  A    between atoms: _387  and  _388
REMARK  160  A    between atoms: _391  and  _393
REMARK  161  A    between atoms: _393  and  _394
REMARK  162  A    between atoms: _396  and  _398
REMARK  163  A    between atoms: _398  and  _399
REMARK  164  A    between atoms: _401  and  _403
REMARK  165  A    between atoms: _403  and  _404
REMARK  166  A    between atoms: _403  and  _406
REMARK  167  A    between atoms: _406  and  _407
REMARK  168  A    between atoms: _410  and  _412
REMARK  169  A    between atoms: _412  and  _413
REMARK  170  A    between atoms: _415  and  _417
REMARK  171  A    between atoms: _417  and  _418
REMARK  172  A    between atoms: _420  and  _422
REMARK  173  A    between atoms: _422  and  _423
REMARK  174  A    between atoms: _422  and  _425
REMARK  175  A    between atoms: _425  and  _426
REMARK  176  A    between atoms: _432  and  _434
REMARK  177  A    between atoms: _434  and  _435
REMARK  178  A    between atoms: _434  and  _437
REMARK  179  A    between atoms: _437  and  _438
REMARK  180  A    between atoms: _441  and  _443
REMARK  181  A    between atoms: _443  and  _444
REMARK  182  A    between atoms: _443  and  _446
REMARK  183  A    between atoms: _449  and  _451
REMARK  184  A    between atoms: _451  and  _452
REMARK  185  A    between atoms: _451  and  _454
REMARK  186  A    between atoms: _454  and  _455
REMARK  187  A    between atoms: _458  and  _460
REMARK  188  A    between atoms: _460  and  _461
REMARK  189  A    between atoms: _460  and  _463
REMARK  190  A    between atoms: _463  and  _464
REMARK  191  A    between atoms: _468  and  _469
REMARK  192  A    between atoms: _474  and  _476
REMARK  193  A    between atoms: _476  and  _477
REMARK  194  A    between atoms: _476  and  _479
REMARK  195  A    between atoms: _482  and  _484
REMARK  196  A    between atoms: _484  and  _485
REMARK  197  A    between atoms: _484  and  _487
REMARK  198  A    between atoms: _487  and  _488
REMARK  199  A    between atoms: _493  and  _495
REMARK  200  A    between atoms: _495  and  _496
REMARK  201  A    between atoms: _495  and  _498
REMARK  202  A    between atoms: _498  and  _499
REMARK  203  A    between atoms: _502  and  _504
REMARK  204  A    between atoms: _504  and  _505
REMARK  205  A    between atoms: _504  and  _507
REMARK  206  A    between atoms: _507  and  _508
REMARK  207  A    between atoms: _511  and  _513
REMARK  208  A    between atoms: _513  and  _514
REMARK  209  A    between atoms: _516  and  _518
REMARK  210  A    between atoms: _518  and  _519
REMARK  211  A    between atoms: _518  and  _521
REMARK  212  A    between atoms: _521  and  _522
REMARK  213  A    between atoms: _522  and  _523
REMARK  214  A    between atoms: _523  and  _524
REMARK  215  A    between atoms: _533  and  _535
REMARK  216  A    between atoms: _535  and  _536
REMARK  217  A    between atoms: _535  and  _538
REMARK  218  A    between atoms: _538  and  _539
REMARK                            x       y       z     vdW  Elec       q    Type
REMARK                         _______ _______ _______ _____ _____    ______ ____
ROOT
ATOM      1  O   HOH     1      10.094  39.534  23.190  0.00  0.00    +0.000 OA
ENDROOT
TORSDOF 0
REMARK  Name = ../refined-set-2016/2qhy/2qhy_pocket.pdb
REMARK  218 active torsions:
REMARK  status: ('A' for Active; 'I' for Inactive)
REMARK    1  A    between atoms: _1  and  _3
REMARK    2  A    between atoms: _3  and  _4
REMARK    3  A    between atoms: _3  and  _6
REMARK    4  A    between atoms: _6  and  _7
REMARK    5  A    between atoms: _7  and  _8
REMARK    6  A    between atoms: _8  and  _9
REMARK    7  A    between atoms: _18  and  _20
REMARK    8  A    between atoms: _20  and  _21
REMARK    9  A    between atoms: _20  and  _23
REMARK   10  A    between atoms: _23  and  _24
REMARK   11  A    between atoms: _27  and  _29
REMARK   12  A    between atoms: _29  and  _30
REMARK   13  A    between atoms: _29  and  _32
REMARK   14  A    between atoms: _32  and  _33
REMARK   15  A    between atoms: _36  and  _38
REMARK   16  A    between atoms: _38  and  _39
REMARK   17  A    between atoms: _38  and  _41
REMARK   18  A    between atoms: _41  and  _42
REMARK   19  A    between atoms: _45  and  _47
REMARK   20  A    between atoms: _47  and  _48
REMARK   21  A    between atoms: _47  and  _50
REMARK   22  A    between atoms: _50  and  _51
REMARK   23  A    between atoms: _54  and  _56
REMARK   24  A    between atoms: _56  and  _57
REMARK   25  A    between atoms: _59  and  _61
REMARK   26  A    between atoms: _61  and  _62
REMARK   27  A    between atoms: _65  and  _67
REMARK   28  A    between atoms: _67  and  _68
REMARK   29  A    between atoms: _67  and  _70
REMARK   30  A    between atoms: _70  and  _71
REMARK   31  A    between atoms: _74  and  _76
REMARK   32  A    between atoms: _76  and  _77
REMARK   33  A    between atoms: _76  and  _79
REMARK   34  A    between atoms: _79  and  _80
REMARK   35  A    between atoms: _83  and  _85
REMARK   36  A    between atoms: _85  and  _86
REMARK   37  A    between atoms: _85  and  _88
REMARK   38  A    between atoms: _88  and  _89
REMARK   39  A    between atoms: _92  and  _94
REMARK   40  A    between atoms: _94  and  _95
REMARK   41  A    between atoms: _94  and  _97
REMARK   42  A    between atoms: _100  and  _102
REMARK   43  A    between atoms: _102  and  _103
REMARK   44  A    between atoms: _102  and  _105
REMARK   45  A    between atoms: _105  and  _106
REMARK   46  A    between atoms: _109  and  _111
REMARK   47  A    between atoms: _111  and  _112
REMARK   48  A    between atoms: _114  and  _116
REMARK   49  A    between atoms: _116  and  _117
REMARK   50  A    between atoms: _119  and  _121
REMARK   51  A    between atoms: _121  and  _122
REMARK   52  A    between atoms: _121  and  _124
REMARK   53  A    between atoms: _124  and  _125
REMARK   54  A    between atoms: _128  and  _130
REMARK   55  A    between atoms: _130  and  _131
REMARK   56  A    between atoms: _133  and  _135
REMARK   57  A    between atoms: _135  and  _136
REMARK   58  A    between atoms: _138  and  _140
REMARK   59  A    between atoms: _140  and  _141
REMARK   60  A    between atoms: _140  and  _143
REMARK   61  A    between atoms: _143  and  _144
REMARK   62  A    between atoms: _150  and  _152
REMARK   63  A    between atoms: _152  and  _153
REMARK   64  A    between atoms: _152  and  _155
REMARK   65  A    between atoms: _155  and  _156
REMARK   66  A    between atoms: _159  and  _161
REMARK   67  A    between atoms: _161  and  _162
REMARK   68  A    between atoms: _161  and  _164
REMARK   69  A    between atoms: _164  and  _165
REMARK   70  A    between atoms: _169  and  _170
REMARK   71  A    between atoms: _175  and  _177
REMARK   72  A    between atoms: _177  and  _178
REMARK   73  A    between atoms: _177  and  _180
REMARK   74  A    between atoms: _180  and  _181
REMARK   75  A    between atoms: _185  and  _186
REMARK   76  A    between atoms: _191  and  _193
REMARK   77  A    between atoms: _193  and  _194
REMARK   78  A    between atoms: _193  and  _196
REMARK   79  A    between atoms: _199  and  _201
REMARK   80  A    between atoms: _201  and  _202
REMARK   81  A    between atoms: _201  and  _204
REMARK   82  A    between atoms: _204  and  _205
REMARK   83  A    between atoms: _210  and  _212
REMARK   84  A    between atoms: _212  and  _213
REMARK   85  A    between atoms: _212  and  _215
REMARK   86  A    between atoms: _215  and  _216
REMARK   87  A    between atoms: _219  and  _221
REMARK   88  A    between atoms: _221  and  _222
REMARK   89  A    between atoms: _221  and  _224
REMARK   90  A    between atoms: _224  and  _225
REMARK   91  A    between atoms: _228  and  _230
REMARK   92  A    between atoms: _230  and  _231
REMARK   93  A    between atoms: _233  and  _235
REMARK   94  A    between atoms: _235  and  _236
REMARK   95  A    between atoms: _235  and  _238
REMARK   96  A    between atoms: _238  and  _239
REMARK   97  A    between atoms: _239  and  _240
REMARK   98  A    between atoms: _240  and  _241
REMARK   99  A    between atoms: _250  and  _252
REMARK  100  A    between atoms: _252  and  _253
REMARK  101  A    between atoms: _252  and  _255
REMARK  102  A    between atoms: _255  and  _256
REMARK  103  A    between atoms: _261  and  _263
REMARK  104  A    between atoms: _263  and  _264
REMARK  105  A    between atoms: _263  and  _266
REMARK  106  A    between atoms: _266  and  _267
REMARK  107  A    between atoms: _267  and  _268
REMARK  108  A    between atoms: _268  and  _269
REMARK  109  A    between atoms: _278  and  _280
REMARK  110  A    between atoms: _280  and  _281
REMARK  111  A    between atoms: _280  and  _283
REMARK  112  A    between atoms: _283  and  _284
REMARK  113  A    between atoms: _287  and  _289
REMARK  114  A    between atoms: _289  and  _290
REMARK  115  A    between atoms: _289  and  _292
REMARK  116  A    between atoms: _292  and  _293
REMARK  117  A    between atoms: _296  and  _298
REMARK  118  A    between atoms: _298  and  _299
REMARK  119  A    between atoms: _298  and  _301
REMARK  120  A    between atoms: _301  and  _302
REMARK  121  A    between atoms: _305  and  _307
REMARK  122  A    between atoms: _307  and  _308
REMARK  123  A    between atoms: _307  and  _310
REMARK  124  A    between atoms: _310  and  _311
REMARK  125  A    between atoms: _314  and  _316
REMARK  126  A    between atoms: _316  and  _317
REMARK  127  A    between atoms: _319  and  _321
REMARK  128  A    between atoms: _321  and  _322
REMARK  129  A    between atoms: _325  and  _327
REMARK  130  A    between atoms: _327  and  _328
REMARK  131  A    between atoms: _327  and  _330
REMARK  132  A    between atoms: _330  and  _331
REMARK  133  A    between atoms: _334  and  _336
REMARK  134  A    between atoms: _336  and  _337
REMARK  135  A    between atoms: _336  and  _339
REMARK  136  A    between atoms: _339  and  _340
REMARK  137  A    between atoms: _343  and  _345
REMARK  138  A    between atoms: _345  and  _346
REMARK  139  A    between atoms: _345  and  _348
REMARK  140  A    between atoms: _348  and  _349
REMARK  141  A    between atoms: _352  and  _354
REMARK  142  A    between atoms: _354  and  _355
REMARK  143  A    between atoms: _354  and  _357
REMARK  144  A    between atoms: _360  and  _362
REMARK  145  A    between atoms: _362  and  _363
REMARK  146  A    between atoms: _362  and  _365
REMARK  147  A    between atoms: _365  and  _366
REMARK  148  A    between atoms: _366  and  _367
REMARK  149  A    between atoms: _367  and  _368
REMARK  150  A    between atoms: _368  and  _369
REMARK  151  A    between atoms: _373  and  _375
REMARK  152  A    between atoms: _375  and  _376
REMARK  153  A    between atoms: _375  and  _378
REMARK  154  A    between atoms: _378  and  _379
REMARK  155  A    between atoms: _379  and  _380
REMARK  156  A    between atoms: _382  and  _384
REMARK  157  A    between atoms: _384  and  _385
REMARK  158  A    between atoms: _384  and  _387
REMARK  159  A    between atoms: _387  and  _388
REMARK  160  A    between atoms: _391  and  _393
REMARK  161  A    between atoms: _393  and  _394
REMARK  162  A    between atoms: _396  and  _398
REMARK  163  A    between atoms: _398  and  _399
REMARK  164  A    between atoms: _401  and  _403
REMARK  165  A    between atoms: _403  and  _404
REMARK  166  A    between atoms: _403  and  _406
REMARK  167  A    between atoms: _406  and  _407
REMARK  168  A    between atoms: _410  and  _412
REMARK  169  A    between atoms: _412  and  _413
REMARK  170  A    between atoms: _415  and  _417
REMARK  171  A    between atoms: _417  and  _418
REMARK  172  A    between atoms: _420  and  _422
REMARK  173  A    between atoms: _422  and  _423
REMARK  174  A    between atoms: _422  and  _425
REMARK  175  A    between atoms: _425  and  _426
REMARK  176  A    between atoms: _432  and  _434
REMARK  177  A    between atoms: _434  and  _435
REMARK  178  A    between atoms: _434  and  _437
REMARK  179  A    between atoms: _437  and  _438
REMARK  180  A    between atoms: _441  and  _443
REMARK  181  A    between atoms: _443  and  _444
REMARK  182  A    between atoms: _443  and  _446
REMARK  183  A    between atoms: _449  and  _451
REMARK  184  A    between atoms: _451  and  _452
REMARK  185  A    between atoms: _451  and  _454
REMARK  186  A    between atoms: _454  and  _455
REMARK  187  A    between atoms: _458  and  _460
REMARK  188  A    between atoms: _460  and  _461
REMARK  189  A    between atoms: _460  and  _463
REMARK  190  A    between atoms: _463  and  _464
REMARK  191  A    between atoms: _468  and  _469
REMARK  192  A    between atoms: _474  and  _476
REMARK  193  A    between atoms: _476  and  _477
REMARK  194  A    between atoms: _476  and  _479
REMARK  195  A    between atoms: _482  and  _484
REMARK  196  A    between atoms: _484  and  _485
REMARK  197  A    between atoms: _484  and  _487
REMARK  198  A    between atoms: _487  and  _488
REMARK  199  A    between atoms: _493  and  _495
REMARK  200  A    between atoms: _495  and  _496
REMARK  201  A    between atoms: _495  and  _498
REMARK  202  A    between atoms: _498  and  _499
REMARK  203  A    between atoms: _502  and  _504
REMARK  204  A    between atoms: _504  and  _505
REMARK  205  A    between atoms: _504  and  _507
REMARK  206  A    between atoms: _507  and  _508
REMARK  207  A    between atoms: _511  and  _513
REMARK  208  A    between atoms: _513  and  _514
REMARK  209  A    between atoms: _516  and  _518
REMARK  210  A    between atoms: _518  and  _519
REMARK  211  A    between atoms: _518  and  _521
REMARK  212  A    between atoms: _521  and  _522
REMARK  213  A    between atoms: _522  and  _523
REMARK  214  A    between atoms: _523  and  _524
REMARK  215  A    between atoms: _533  and  _535
REMARK  216  A    between atoms: _535  and  _536
REMARK  217  A    between atoms: _535  and  _538
REMARK  218  A    between atoms: _538  and  _539
REMARK                            x       y       z     vdW  Elec       q    Type
REMARK                         _______ _______ _______ _____ _____    ______ ____
ROOT
ATOM      1  O   HOH     1      20.206  36.169  18.380  0.00  0.00    +0.000 OA
ENDROOT
TORSDOF 0
REMARK  Name = ../refined-set-2016/2qhy/2qhy_pocket.pdb
REMARK  218 active torsions:
REMARK  status: ('A' for Active; 'I' for Inactive)
REMARK    1  A    between atoms: _1  and  _3
REMARK    2  A    between atoms: _3  and  _4
REMARK    3  A    between atoms: _3  and  _6
REMARK    4  A    between atoms: _6  and  _7
REMARK    5  A    between atoms: _7  and  _8
REMARK    6  A    between atoms: _8  and  _9
REMARK    7  A    between atoms: _18  and  _20
REMARK    8  A    between atoms: _20  and  _21
REMARK    9  A    between atoms: _20  and  _23
REMARK   10  A    between atoms: _23  and  _24
REMARK   11  A    between atoms: _27  and  _29
REMARK   12  A    between atoms: _29  and  _30
REMARK   13  A    between atoms: _29  and  _32
REMARK   14  A    between atoms: _32  and  _33
REMARK   15  A    between atoms: _36  and  _38
REMARK   16  A    between atoms: _38  and  _39
REMARK   17  A    between atoms: _38  and  _41
REMARK   18  A    between atoms: _41  and  _42
REMARK   19  A    between atoms: _45  and  _47
REMARK   20  A    between atoms: _47  and  _48
REMARK   21  A    between atoms: _47  and  _50
REMARK   22  A    between atoms: _50  and  _51
REMARK   23  A    between atoms: _54  and  _56
REMARK   24  A    between atoms: _56  and  _57
REMARK   25  A    between atoms: _59  and  _61
REMARK   26  A    between atoms: _61  and  _62
REMARK   27  A    between atoms: _65  and  _67
REMARK   28  A    between atoms: _67  and  _68
REMARK   29  A    between atoms: _67  and  _70
REMARK   30  A    between atoms: _70  and  _71
REMARK   31  A    between atoms: _74  and  _76
REMARK   32  A    between atoms: _76  and  _77
REMARK   33  A    between atoms: _76  and  _79
REMARK   34  A    between atoms: _79  and  _80
REMARK   35  A    between atoms: _83  and  _85
REMARK   36  A    between atoms: _85  and  _86
REMARK   37  A    between atoms: _85  and  _88
REMARK   38  A    between atoms: _88  and  _89
REMARK   39  A    between atoms: _92  and  _94
REMARK   40  A    between atoms: _94  and  _95
REMARK   41  A    between atoms: _94  and  _97
REMARK   42  A    between atoms: _100  and  _102
REMARK   43  A    between atoms: _102  and  _103
REMARK   44  A    between atoms: _102  and  _105
REMARK   45  A    between atoms: _105  and  _106
REMARK   46  A    between atoms: _109  and  _111
REMARK   47  A    between atoms: _111  and  _112
REMARK   48  A    between atoms: _114  and  _116
REMARK   49  A    between atoms: _116  and  _117
REMARK   50  A    between atoms: _119  and  _121
REMARK   51  A    between atoms: _121  and  _122
REMARK   52  A    between atoms: _121  and  _124
REMARK   53  A    between atoms: _124  and  _125
REMARK   54  A    between atoms: _128  and  _130
REMARK   55  A    between atoms: _130  and  _131
REMARK   56  A    between atoms: _133  and  _135
REMARK   57  A    between atoms: _135  and  _136
REMARK   58  A    between atoms: _138  and  _140
REMARK   59  A    between atoms: _140  and  _141
REMARK   60  A    between atoms: _140  and  _143
REMARK   61  A    between atoms: _143  and  _144
REMARK   62  A    between atoms: _150  and  _152
REMARK   63  A    between atoms: _152  and  _153
REMARK   64  A    between atoms: _152  and  _155
REMARK   65  A    between atoms: _155  and  _156
REMARK   66  A    between atoms: _159  and  _161
REMARK   67  A    between atoms: _161  and  _162
REMARK   68  A    between atoms: _161  and  _164
REMARK   69  A    between atoms: _164  and  _165
REMARK   70  A    between atoms: _169  and  _170
REMARK   71  A    between atoms: _175  and  _177
REMARK   72  A    between atoms: _177  and  _178
REMARK   73  A    between atoms: _177  and  _180
REMARK   74  A    between atoms: _180  and  _181
REMARK   75  A    between atoms: _185  and  _186
REMARK   76  A    between atoms: _191  and  _193
REMARK   77  A    between atoms: _193  and  _194
REMARK   78  A    between atoms: _193  and  _196
REMARK   79  A    between atoms: _199  and  _201
REMARK   80  A    between atoms: _201  and  _202
REMARK   81  A    between atoms: _201  and  _204
REMARK   82  A    between atoms: _204  and  _205
REMARK   83  A    between atoms: _210  and  _212
REMARK   84  A    between atoms: _212  and  _213
REMARK   85  A    between atoms: _212  and  _215
REMARK   86  A    between atoms: _215  and  _216
REMARK   87  A    between atoms: _219  and  _221
REMARK   88  A    between atoms: _221  and  _222
REMARK   89  A    between atoms: _221  and  _224
REMARK   90  A    between atoms: _224  and  _225
REMARK   91  A    between atoms: _228  and  _230
REMARK   92  A    between atoms: _230  and  _231
REMARK   93  A    between atoms: _233  and  _235
REMARK   94  A    between atoms: _235  and  _236
REMARK   95  A    between atoms: _235  and  _238
REMARK   96  A    between atoms: _238  and  _239
REMARK   97  A    between atoms: _239  and  _240
REMARK   98  A    between atoms: _240  and  _241
REMARK   99  A    between atoms: _250  and  _252
REMARK  100  A    between atoms: _252  and  _253
REMARK  101  A    between atoms: _252  and  _255
REMARK  102  A    between atoms: _255  and  _256
REMARK  103  A    between atoms: _261  and  _263
REMARK  104  A    between atoms: _263  and  _264
REMARK  105  A    between atoms: _263  and  _266
REMARK  106  A    between atoms: _266  and  _267
REMARK  107  A    between atoms: _267  and  _268
REMARK  108  A    between atoms: _268  and  _269
REMARK  109  A    between atoms: _278  and  _280
REMARK  110  A    between atoms: _280  and  _281
REMARK  111  A    between atoms: _280  and  _283
REMARK  112  A    between atoms: _283  and  _284
REMARK  113  A    between atoms: _287  and  _289
REMARK  114  A    between atoms: _289  and  _290
REMARK  115  A    between atoms: _289  and  _292
REMARK  116  A    between atoms: _292  and  _293
REMARK  117  A    between atoms: _296  and  _298
REMARK  118  A    between atoms: _298  and  _299
REMARK  119  A    between atoms: _298  and  _301
REMARK  120  A    between atoms: _301  and  _302
REMARK  121  A    between atoms: _305  and  _307
REMARK  122  A    between atoms: _307  and  _308
REMARK  123  A    between atoms: _307  and  _310
REMARK  124  A    between atoms: _310  and  _311
REMARK  125  A    between atoms: _314  and  _316
REMARK  126  A    between atoms: _316  and  _317
REMARK  127  A    between atoms: _319  and  _321
REMARK  128  A    between atoms: _321  and  _322
REMARK  129  A    between atoms: _325  and  _327
REMARK  130  A    between atoms: _327  and  _328
REMARK  131  A    between atoms: _327  and  _330
REMARK  132  A    between atoms: _330  and  _331
REMARK  133  A    between atoms: _334  and  _336
REMARK  134  A    between atoms: _336  and  _337
REMARK  135  A    between atoms: _336  and  _339
REMARK  136  A    between atoms: _339  and  _340
REMARK  137  A    between atoms: _343  and  _345
REMARK  138  A    between atoms: _345  and  _346
REMARK  139  A    between atoms: _345  and  _348
REMARK  140  A    between atoms: _348  and  _349
REMARK  141  A    between atoms: _352  and  _354
REMARK  142  A    between atoms: _354  and  _355
REMARK  143  A    between atoms: _354  and  _357
REMARK  144  A    between atoms: _360  and  _362
REMARK  145  A    between atoms: _362  and  _363
REMARK  146  A    between atoms: _362  and  _365
REMARK  147  A    between atoms: _365  and  _366
REMARK  148  A    between atoms: _366  and  _367
REMARK  149  A    between atoms: _367  and  _368
REMARK  150  A    between atoms: _368  and  _369
REMARK  151  A    between atoms: _373  and  _375
REMARK  152  A    between atoms: _375  and  _376
REMARK  153  A    between atoms: _375  and  _378
REMARK  154  A    between atoms: _378  and  _379
REMARK  155  A    between atoms: _379  and  _380
REMARK  156  A    between atoms: _382  and  _384
REMARK  157  A    between atoms: _384  and  _385
REMARK  158  A    between atoms: _384  and  _387
REMARK  159  A    between atoms: _387  and  _388
REMARK  160  A    between atoms: _391  and  _393
REMARK  161  A    between atoms: _393  and  _394
REMARK  162  A    between atoms: _396  and  _398
REMARK  163  A    between atoms: _398  and  _399
REMARK  164  A    between atoms: _401  and  _403
REMARK  165  A    between atoms: _403  and  _404
REMARK  166  A    between atoms: _403  and  _406
REMARK  167  A    between atoms: _406  and  _407
REMARK  168  A    between atoms: _410  and  _412
REMARK  169  A    between atoms: _412  and  _413
REMARK  170  A    between atoms: _415  and  _417
REMARK  171  A    between atoms: _417  and  _418
REMARK  172  A    between atoms: _420  and  _422
REMARK  173  A    between atoms: _422  and  _423
REMARK  174  A    between atoms: _422  and  _425
REMARK  175  A    between atoms: _425  and  _426
REMARK  176  A    between atoms: _432  and  _434
REMARK  177  A    between atoms: _434  and  _435
REMARK  178  A    between atoms: _434  and  _437
REMARK  179  A    between atoms: _437  and  _438
REMARK  180  A    between atoms: _441  and  _443
REMARK  181  A    between atoms: _443  and  _444
REMARK  182  A    between atoms: _443  and  _446
REMARK  183  A    between atoms: _449  and  _451
REMARK  184  A    between atoms: _451  and  _452
REMARK  185  A    between atoms: _451  and  _454
REMARK  186  A    between atoms: _454  and  _455
REMARK  187  A    between atoms: _458  and  _460
REMARK  188  A    between atoms: _460  and  _461
REMARK  189  A    between atoms: _460  and  _463
REMARK  190  A    between atoms: _463  and  _464
REMARK  191  A    between atoms: _468  and  _469
REMARK  192  A    between atoms: _474  and  _476
REMARK  193  A    between atoms: _476  and  _477
REMARK  194  A    between atoms: _476  and  _479
REMARK  195  A    between atoms: _482  and  _484
REMARK  196  A    between atoms: _484  and  _485
REMARK  197  A    between atoms: _484  and  _487
REMARK  198  A    between atoms: _487  and  _488
REMARK  199  A    between atoms: _493  and  _495
REMARK  200  A    between atoms: _495  and  _496
REMARK  201  A    between atoms: _495  and  _498
REMARK  202  A    between atoms: _498  and  _499
REMARK  203  A    between atoms: _502  and  _504
REMARK  204  A    between atoms: _504  and  _505
REMARK  205  A    between atoms: _504  and  _507
REMARK  206  A    between atoms: _507  and  _508
REMARK  207  A    between atoms: _511  and  _513
REMARK  208  A    between atoms: _513  and  _514
REMARK  209  A    between atoms: _516  and  _518
REMARK  210  A    between atoms: _518  and  _519
REMARK  211  A    between atoms: _518  and  _521
REMARK  212  A    between atoms: _521  and  _522
REMARK  213  A    between atoms: _522  and  _523
REMARK  214  A    between atoms: _523  and  _524
REMARK  215  A    between atoms: _533  and  _535
REMARK  216  A    between atoms: _535  and  _536
REMARK  217  A    between atoms: _535  and  _538
REMARK  218  A    between atoms: _538  and  _539
REMARK                            x       y       z     vdW  Elec       q    Type
REMARK                         _______ _______ _______ _____ _____    ______ ____
ROOT
ATOM      1  O   HOH     1      20.609  37.784  16.388  0.00  0.00    +0.000 OA
ENDROOT
TORSDOF 0
