REMARK  Name = ../refined-set-2016/1n3i/1n3i_pocket.pdb
REMARK  180 active torsions:
REMARK  status: ('A' for Active; 'I' for Inactive)
REMARK    1  A    between atoms: _1  and  _3
REMARK    2  A    between atoms: _3  and  _4
REMARK    3  A    between atoms: _6  and  _8
REMARK    4  A    between atoms: _8  and  _9
REMARK    5  A    between atoms: _8  and  _11
REMARK    6  A    between atoms: _11  and  _12
REMARK    7  A    between atoms: _14  and  _16
REMARK    8  A    between atoms: _16  and  _17
REMARK    9  A    between atoms: _19  and  _21
REMARK   10  A    between atoms: _21  and  _22
REMARK   11  A    between atoms: _25  and  _27
REMARK   12  A    between atoms: _27  and  _28
REMARK   13  A    between atoms: _31  and  _33
REMARK   14  A    between atoms: _33  and  _34
REMARK   15  A    between atoms: _33  and  _36
REMARK   16  A    between atoms: _36  and  _37
REMARK   17  A    between atoms: _42  and  _44
REMARK   18  A    between atoms: _44  and  _45
REMARK   19  A    between atoms: _44  and  _47
REMARK   20  A    between atoms: _47  and  _48
REMARK   21  A    between atoms: _48  and  _49
REMARK   22  A    between atoms: _49  and  _50
REMARK   23  A    between atoms: _59  and  _61
REMARK   24  A    between atoms: _61  and  _62
REMARK   25  A    between atoms: _61  and  _64
REMARK   26  A    between atoms: _64  and  _65
REMARK   27  A    between atoms: _68  and  _70
REMARK   28  A    between atoms: _70  and  _71
REMARK   29  A    between atoms: _70  and  _73
REMARK   30  A    between atoms: _73  and  _74
REMARK   31  A    between atoms: _79  and  _81
REMARK   32  A    between atoms: _81  and  _82
REMARK   33  A    between atoms: _85  and  _87
REMARK   34  A    between atoms: _87  and  _88
REMARK   35  A    between atoms: _87  and  _90
REMARK   36  A    between atoms: _90  and  _91
REMARK   37  A    between atoms: _96  and  _97
REMARK   38  A    between atoms: _99  and  _101
REMARK   39  A    between atoms: _101  and  _102
REMARK   40  A    between atoms: _101  and  _104
REMARK   41  A    between atoms: _104  and  _105
REMARK   42  A    between atoms: _105  and  _106
REMARK   43  A    between atoms: _109  and  _111
REMARK   44  A    between atoms: _111  and  _112
REMARK   45  A    between atoms: _111  and  _114
REMARK   46  A    between atoms: _114  and  _115
REMARK   47  A    between atoms: _120  and  _122
REMARK   48  A    between atoms: _122  and  _123
REMARK   49  A    between atoms: _126  and  _128
REMARK   50  A    between atoms: _128  and  _129
REMARK   51  A    between atoms: _132  and  _134
REMARK   52  A    between atoms: _134  and  _135
REMARK   53  A    between atoms: _137  and  _139
REMARK   54  A    between atoms: _139  and  _140
REMARK   55  A    between atoms: _142  and  _144
REMARK   56  A    between atoms: _144  and  _145
REMARK   57  A    between atoms: _144  and  _147
REMARK   58  A    between atoms: _147  and  _148
REMARK   59  A    between atoms: _151  and  _153
REMARK   60  A    between atoms: _153  and  _154
REMARK   61  A    between atoms: _153  and  _156
REMARK   62  A    between atoms: _156  and  _157
REMARK   63  A    between atoms: _162  and  _163
REMARK   64  A    between atoms: _165  and  _167
REMARK   65  A    between atoms: _167  and  _168
REMARK   66  A    between atoms: _171  and  _173
REMARK   67  A    between atoms: _173  and  _174
REMARK   68  A    between atoms: _173  and  _176
REMARK   69  A    between atoms: _176  and  _177
REMARK   70  A    between atoms: _181  and  _182
REMARK   71  A    between atoms: _187  and  _189
REMARK   72  A    between atoms: _189  and  _190
REMARK   73  A    between atoms: _193  and  _194
REMARK   74  A    between atoms: _199  and  _201
REMARK   75  A    between atoms: _201  and  _202
REMARK   76  A    between atoms: _201  and  _204
REMARK   77  A    between atoms: _204  and  _205
REMARK   78  A    between atoms: _210  and  _212
REMARK   79  A    between atoms: _212  and  _213
REMARK   80  A    between atoms: _212  and  _215
REMARK   81  A    between atoms: _215  and  _216
REMARK   82  A    between atoms: _221  and  _222
REMARK   83  A    between atoms: _224  and  _226
REMARK   84  A    between atoms: _226  and  _227
REMARK   85  A    between atoms: _226  and  _229
REMARK   86  A    between atoms: _229  and  _230
REMARK   87  A    between atoms: _230  and  _231
REMARK   88  A    between atoms: _234  and  _236
REMARK   89  A    between atoms: _236  and  _237
REMARK   90  A    between atoms: _236  and  _239
REMARK   91  A    between atoms: _239  and  _240
REMARK   92  A    between atoms: _243  and  _245
REMARK   93  A    between atoms: _245  and  _246
REMARK   94  A    between atoms: _245  and  _248
REMARK   95  A    between atoms: _248  and  _249
REMARK   96  A    between atoms: _252  and  _254
REMARK   97  A    between atoms: _254  and  _255
REMARK   98  A    between atoms: _254  and  _257
REMARK   99  A    between atoms: _257  and  _258
REMARK  100  A    between atoms: _261  and  _263
REMARK  101  A    between atoms: _263  and  _264
REMARK  102  A    between atoms: _263  and  _266
REMARK  103  A    between atoms: _269  and  _271
REMARK  104  A    between atoms: _271  and  _272
REMARK  105  A    between atoms: _274  and  _276
REMARK  106  A    between atoms: _276  and  _277
REMARK  107  A    between atoms: _276  and  _279
REMARK  108  A    between atoms: _279  and  _280
REMARK  109  A    between atoms: _280  and  _281
REMARK  110  A    between atoms: _283  and  _285
REMARK  111  A    between atoms: _285  and  _286
REMARK  112  A    between atoms: _285  and  _288
REMARK  113  A    between atoms: _288  and  _289
REMARK  114  A    between atoms: _291  and  _293
REMARK  115  A    between atoms: _293  and  _294
REMARK  116  A    between atoms: _293  and  _296
REMARK  117  A    between atoms: _296  and  _297
REMARK  118  A    between atoms: _300  and  _302
REMARK  119  A    between atoms: _302  and  _303
REMARK  120  A    between atoms: _302  and  _305
REMARK  121  A    between atoms: _308  and  _310
REMARK  122  A    between atoms: _310  and  _311
REMARK  123  A    between atoms: _310  and  _313
REMARK  124  A    between atoms: _313  and  _314
REMARK  125  A    between atoms: _317  and  _319
REMARK  126  A    between atoms: _319  and  _320
REMARK  127  A    between atoms: _319  and  _322
REMARK  128  A    between atoms: _322  and  _323
REMARK  129  A    between atoms: _328  and  _330
REMARK  130  A    between atoms: _330  and  _331
REMARK  131  A    between atoms: _330  and  _333
REMARK  132  A    between atoms: _333  and  _334
REMARK  133  A    between atoms: _337  and  _339
REMARK  134  A    between atoms: _339  and  _340
REMARK  135  A    between atoms: _343  and  _345
REMARK  136  A    between atoms: _345  and  _346
REMARK  137  A    between atoms: _349  and  _351
REMARK  138  A    between atoms: _351  and  _352
REMARK  139  A    between atoms: _351  and  _354
REMARK  140  A    between atoms: _354  and  _355
REMARK  141  A    between atoms: _358  and  _360
REMARK  142  A    between atoms: _360  and  _361
REMARK  143  A    between atoms: _360  and  _363
REMARK  144  A    between atoms: _363  and  _364
REMARK  145  A    between atoms: _366  and  _368
REMARK  146  A    between atoms: _368  and  _369
REMARK  147  A    between atoms: _368  and  _371
REMARK  148  A    between atoms: _371  and  _372
REMARK  149  A    between atoms: _377  and  _379
REMARK  150  A    between atoms: _379  and  _380
REMARK  151  A    between atoms: _383  and  _385
REMARK  152  A    between atoms: _385  and  _386
REMARK  153  A    between atoms: _385  and  _388
REMARK  154  A    between atoms: _388  and  _389
REMARK  155  A    between atoms: _389  and  _390
REMARK  156  A    between atoms: _393  and  _395
REMARK  157  A    between atoms: _395  and  _396
REMARK  158  A    between atoms: _395  and  _398
REMARK  159  A    between atoms: _401  and  _403
REMARK  160  A    between atoms: _403  and  _404
REMARK  161  A    between atoms: _403  and  _406
REMARK  162  A    between atoms: _406  and  _407
REMARK  163  A    between atoms: _410  and  _412
REMARK  164  A    between atoms: _412  and  _413
REMARK  165  A    between atoms: _415  and  _417
REMARK  166  A    between atoms: _417  and  _418
REMARK  167  A    between atoms: _417  and  _420
REMARK  168  A    between atoms: _420  and  _421
REMARK  169  A    between atoms: _421  and  _422
REMARK  170  A    between atoms: _425  and  _427
REMARK  171  A    between atoms: _427  and  _428
REMARK  172  A    between atoms: _427  and  _430
REMARK  173  A    between atoms: _430  and  _431
REMARK  174  A    between atoms: _437  and  _439
REMARK  175  A    between atoms: _439  and  _440
REMARK  176  A    between atoms: _439  and  _442
REMARK  177  A    between atoms: _445  and  _447
REMARK  178  A    between atoms: _447  and  _448
REMARK  179  A    between atoms: _447  and  _450
REMARK  180  A    between atoms: _450  and  _451
REMARK                            x       y       z     vdW  Elec       q    Type
REMARK                         _______ _______ _______ _____ _____    ______ ____
ROOT
ATOM      1  CA  SER A   2      61.931  13.610  45.065  0.00  0.00    +0.178 C 
ENDROOT
BRANCH   1   4
ATOM      2  C   GLY A   1      64.011  14.772  45.555  0.00  0.00    +0.240 C 
ATOM      3  O   GLY A   1      64.622  13.716  45.708  0.00  0.00    -0.274 OA
ATOM      4  N   SER A   2      62.718  14.821  45.250  0.00  0.00    -0.295 N 
ATOM      5  H   SER A   2      62.257  15.747  45.141  0.00  0.00    +0.150 HD
BRANCH   2   6
ATOM      6  CA  GLY A   1      64.712  16.108  45.721  0.00  0.00    +0.169 C 
BRANCH   6   7
ATOM      7  N   GLY A   1      66.159  16.048  45.630  0.00  0.00    -0.236 NA
ATOM      8  H   GLY A   1      66.612  16.055  44.694  0.00  0.00    +0.142 HD
ENDBRANCH   6   7
ENDBRANCH   2   6
ENDBRANCH   1   4
BRANCH   1   9
ATOM      9  C   SER A   2      62.500  12.765  43.938  0.00  0.00    +0.243 C 
ATOM     10  N   GLY A   3      62.690  11.480  44.216  0.00  0.00    -0.296 N 
ATOM     11  H   GLY A   3      62.449  11.121  45.162  0.00  0.00    +0.150 HD
ATOM     12  O   SER A   2      62.754  13.265  42.844  0.00  0.00    -0.273 OA
BRANCH  10  13
ATOM     13  CA  GLY A   3      63.228  10.569  43.222  0.00  0.00    +0.163 C 
BRANCH  13  14
ATOM     14  C   GLY A   3      64.744  10.503  43.210  0.00  0.00    +0.229 C 
ATOM     15  O   GLY A   3      65.320   9.550  42.683  0.00  0.00    -0.286 OA
ENDBRANCH  13  14
ENDBRANCH  10  13
ENDBRANCH   1   9
BRANCH   1  16
ATOM     16  CB  SER A   2      60.474  13.965  44.753  0.00  0.00    +0.166 C 
BRANCH  16  17
ATOM     17  OG  SER A   2      59.865  14.637  45.847  0.00  0.00    -0.380 OA
ATOM     18  H   SER A   2      59.885  14.051  46.645  0.00  0.00    +0.211 HD
ENDBRANCH  16  17
ENDBRANCH   1  16
TORSDOF 8
REMARK  Name = ../refined-set-2016/1n3i/1n3i_pocket.pdb
REMARK  180 active torsions:
REMARK  status: ('A' for Active; 'I' for Inactive)
REMARK    1  A    between atoms: _1  and  _3
REMARK    2  A    between atoms: _3  and  _4
REMARK    3  A    between atoms: _6  and  _8
REMARK    4  A    between atoms: _8  and  _9
REMARK    5  A    between atoms: _8  and  _11
REMARK    6  A    between atoms: _11  and  _12
REMARK    7  A    between atoms: _14  and  _16
REMARK    8  A    between atoms: _16  and  _17
REMARK    9  A    between atoms: _19  and  _21
REMARK   10  A    between atoms: _21  and  _22
REMARK   11  A    between atoms: _25  and  _27
REMARK   12  A    between atoms: _27  and  _28
REMARK   13  A    between atoms: _31  and  _33
REMARK   14  A    between atoms: _33  and  _34
REMARK   15  A    between atoms: _33  and  _36
REMARK   16  A    between atoms: _36  and  _37
REMARK   17  A    between atoms: _42  and  _44
REMARK   18  A    between atoms: _44  and  _45
REMARK   19  A    between atoms: _44  and  _47
REMARK   20  A    between atoms: _47  and  _48
REMARK   21  A    between atoms: _48  and  _49
REMARK   22  A    between atoms: _49  and  _50
REMARK   23  A    between atoms: _59  and  _61
REMARK   24  A    between atoms: _61  and  _62
REMARK   25  A    between atoms: _61  and  _64
REMARK   26  A    between atoms: _64  and  _65
REMARK   27  A    between atoms: _68  and  _70
REMARK   28  A    between atoms: _70  and  _71
REMARK   29  A    between atoms: _70  and  _73
REMARK   30  A    between atoms: _73  and  _74
REMARK   31  A    between atoms: _79  and  _81
REMARK   32  A    between atoms: _81  and  _82
REMARK   33  A    between atoms: _85  and  _87
REMARK   34  A    between atoms: _87  and  _88
REMARK   35  A    between atoms: _87  and  _90
REMARK   36  A    between atoms: _90  and  _91
REMARK   37  A    between atoms: _96  and  _97
REMARK   38  A    between atoms: _99  and  _101
REMARK   39  A    between atoms: _101  and  _102
REMARK   40  A    between atoms: _101  and  _104
REMARK   41  A    between atoms: _104  and  _105
REMARK   42  A    between atoms: _105  and  _106
REMARK   43  A    between atoms: _109  and  _111
REMARK   44  A    between atoms: _111  and  _112
REMARK   45  A    between atoms: _111  and  _114
REMARK   46  A    between atoms: _114  and  _115
REMARK   47  A    between atoms: _120  and  _122
REMARK   48  A    between atoms: _122  and  _123
REMARK   49  A    between atoms: _126  and  _128
REMARK   50  A    between atoms: _128  and  _129
REMARK   51  A    between atoms: _132  and  _134
REMARK   52  A    between atoms: _134  and  _135
REMARK   53  A    between atoms: _137  and  _139
REMARK   54  A    between atoms: _139  and  _140
REMARK   55  A    between atoms: _142  and  _144
REMARK   56  A    between atoms: _144  and  _145
REMARK   57  A    between atoms: _144  and  _147
REMARK   58  A    between atoms: _147  and  _148
REMARK   59  A    between atoms: _151  and  _153
REMARK   60  A    between atoms: _153  and  _154
REMARK   61  A    between atoms: _153  and  _156
REMARK   62  A    between atoms: _156  and  _157
REMARK   63  A    between atoms: _162  and  _163
REMARK   64  A    between atoms: _165  and  _167
REMARK   65  A    between atoms: _167  and  _168
REMARK   66  A    between atoms: _171  and  _173
REMARK   67  A    between atoms: _173  and  _174
REMARK   68  A    between atoms: _173  and  _176
REMARK   69  A    between atoms: _176  and  _177
REMARK   70  A    between atoms: _181  and  _182
REMARK   71  A    between atoms: _187  and  _189
REMARK   72  A    between atoms: _189  and  _190
REMARK   73  A    between atoms: _193  and  _194
REMARK   74  A    between atoms: _199  and  _201
REMARK   75  A    between atoms: _201  and  _202
REMARK   76  A    between atoms: _201  and  _204
REMARK   77  A    between atoms: _204  and  _205
REMARK   78  A    between atoms: _210  and  _212
REMARK   79  A    between atoms: _212  and  _213
REMARK   80  A    between atoms: _212  and  _215
REMARK   81  A    between atoms: _215  and  _216
REMARK   82  A    between atoms: _221  and  _222
REMARK   83  A    between atoms: _224  and  _226
REMARK   84  A    between atoms: _226  and  _227
REMARK   85  A    between atoms: _226  and  _229
REMARK   86  A    between atoms: _229  and  _230
REMARK   87  A    between atoms: _230  and  _231
REMARK   88  A    between atoms: _234  and  _236
REMARK   89  A    between atoms: _236  and  _237
REMARK   90  A    between atoms: _236  and  _239
REMARK   91  A    between atoms: _239  and  _240
REMARK   92  A    between atoms: _243  and  _245
REMARK   93  A    between atoms: _245  and  _246
REMARK   94  A    between atoms: _245  and  _248
REMARK   95  A    between atoms: _248  and  _249
REMARK   96  A    between atoms: _252  and  _254
REMARK   97  A    between atoms: _254  and  _255
REMARK   98  A    between atoms: _254  and  _257
REMARK   99  A    between atoms: _257  and  _258
REMARK  100  A    between atoms: _261  and  _263
REMARK  101  A    between atoms: _263  and  _264
REMARK  102  A    between atoms: _263  and  _266
REMARK  103  A    between atoms: _269  and  _271
REMARK  104  A    between atoms: _271  and  _272
REMARK  105  A    between atoms: _274  and  _276
REMARK  106  A    between atoms: _276  and  _277
REMARK  107  A    between atoms: _276  and  _279
REMARK  108  A    between atoms: _279  and  _280
REMARK  109  A    between atoms: _280  and  _281
REMARK  110  A    between atoms: _283  and  _285
REMARK  111  A    between atoms: _285  and  _286
REMARK  112  A    between atoms: _285  and  _288
REMARK  113  A    between atoms: _288  and  _289
REMARK  114  A    between atoms: _291  and  _293
REMARK  115  A    between atoms: _293  and  _294
REMARK  116  A    between atoms: _293  and  _296
REMARK  117  A    between atoms: _296  and  _297
REMARK  118  A    between atoms: _300  and  _302
REMARK  119  A    between atoms: _302  and  _303
REMARK  120  A    between atoms: _302  and  _305
REMARK  121  A    between atoms: _308  and  _310
REMARK  122  A    between atoms: _310  and  _311
REMARK  123  A    between atoms: _310  and  _313
REMARK  124  A    between atoms: _313  and  _314
REMARK  125  A    between atoms: _317  and  _319
REMARK  126  A    between atoms: _319  and  _320
REMARK  127  A    between atoms: _319  and  _322
REMARK  128  A    between atoms: _322  and  _323
REMARK  129  A    between atoms: _328  and  _330
REMARK  130  A    between atoms: _330  and  _331
REMARK  131  A    between atoms: _330  and  _333
REMARK  132  A    between atoms: _333  and  _334
REMARK  133  A    between atoms: _337  and  _339
REMARK  134  A    between atoms: _339  and  _340
REMARK  135  A    between atoms: _343  and  _345
REMARK  136  A    between atoms: _345  and  _346
REMARK  137  A    between atoms: _349  and  _351
REMARK  138  A    between atoms: _351  and  _352
REMARK  139  A    between atoms: _351  and  _354
REMARK  140  A    between atoms: _354  and  _355
REMARK  141  A    between atoms: _358  and  _360
REMARK  142  A    between atoms: _360  and  _361
REMARK  143  A    between atoms: _360  and  _363
REMARK  144  A    between atoms: _363  and  _364
REMARK  145  A    between atoms: _366  and  _368
REMARK  146  A    between atoms: _368  and  _369
REMARK  147  A    between atoms: _368  and  _371
REMARK  148  A    between atoms: _371  and  _372
REMARK  149  A    between atoms: _377  and  _379
REMARK  150  A    between atoms: _379  and  _380
REMARK  151  A    between atoms: _383  and  _385
REMARK  152  A    between atoms: _385  and  _386
REMARK  153  A    between atoms: _385  and  _388
REMARK  154  A    between atoms: _388  and  _389
REMARK  155  A    between atoms: _389  and  _390
REMARK  156  A    between atoms: _393  and  _395
REMARK  157  A    between atoms: _395  and  _396
REMARK  158  A    between atoms: _395  and  _398
REMARK  159  A    between atoms: _401  and  _403
REMARK  160  A    between atoms: _403  and  _404
REMARK  161  A    between atoms: _403  and  _406
REMARK  162  A    between atoms: _406  and  _407
REMARK  163  A    between atoms: _410  and  _412
REMARK  164  A    between atoms: _412  and  _413
REMARK  165  A    between atoms: _415  and  _417
REMARK  166  A    between atoms: _417  and  _418
REMARK  167  A    between atoms: _417  and  _420
REMARK  168  A    between atoms: _420  and  _421
REMARK  169  A    between atoms: _421  and  _422
REMARK  170  A    between atoms: _425  and  _427
REMARK  171  A    between atoms: _427  and  _428
REMARK  172  A    between atoms: _427  and  _430
REMARK  173  A    between atoms: _430  and  _431
REMARK  174  A    between atoms: _437  and  _439
REMARK  175  A    between atoms: _439  and  _440
REMARK  176  A    between atoms: _439  and  _442
REMARK  177  A    between atoms: _445  and  _447
REMARK  178  A    between atoms: _447  and  _448
REMARK  179  A    between atoms: _447  and  _450
REMARK  180  A    between atoms: _450  and  _451
REMARK                            x       y       z     vdW  Elec       q    Type
REMARK                         _______ _______ _______ _____ _____    ______ ____
ROOT
ATOM      1  C   ALA A   1      58.492  12.254  51.994  0.00  0.00    +0.238 C 
ATOM      2  O   ALA A   1      59.696  12.186  52.233  0.00  0.00    -0.274 OA
ATOM      3  N   ALA A   2      57.800  11.237  51.490  0.00  0.00    -0.298 N 
ATOM      4  H   ALA A   2      56.780  11.350  51.321  0.00  0.00    +0.150 HD
ENDROOT
BRANCH   1   5
ATOM      5  CA  ALA A   1      57.711  13.532  52.274  0.00  0.00    +0.145 C 
ATOM      6  CB  ALA A   1      57.794  14.465  51.076  0.00  0.00    +0.028 C 
BRANCH   5   7
ATOM      7  N   ALA A   1      58.207  14.201  53.474  0.00  0.00    -0.238 NA
ATOM      8  H   ALA A   1      58.665  15.131  53.396  0.00  0.00    +0.142 HD
ENDBRANCH   5   7
ENDBRANCH   1   5
BRANCH   3   9
ATOM      9  CA  ALA A   2      58.439   9.969  51.169  0.00  0.00    +0.137 C 
ATOM     10  CB  ALA A   2      57.392   8.969  50.669  0.00  0.00    +0.030 C 
BRANCH   9  11
ATOM     11  C   ALA A   2      59.503  10.206  50.097  0.00  0.00    +0.227 C 
ATOM     12  O   ALA A   2      59.286  10.971  49.161  0.00  0.00    -0.286 OA
ENDBRANCH   9  11
ENDBRANCH   3   9
TORSDOF 4
REMARK  Name = ../refined-set-2016/1n3i/1n3i_pocket.pdb
REMARK  180 active torsions:
REMARK  status: ('A' for Active; 'I' for Inactive)
REMARK    1  A    between atoms: _1  and  _3
REMARK    2  A    between atoms: _3  and  _4
REMARK    3  A    between atoms: _6  and  _8
REMARK    4  A    between atoms: _8  and  _9
REMARK    5  A    between atoms: _8  and  _11
REMARK    6  A    between atoms: _11  and  _12
REMARK    7  A    between atoms: _14  and  _16
REMARK    8  A    between atoms: _16  and  _17
REMARK    9  A    between atoms: _19  and  _21
REMARK   10  A    between atoms: _21  and  _22
REMARK   11  A    between atoms: _25  and  _27
REMARK   12  A    between atoms: _27  and  _28
REMARK   13  A    between atoms: _31  and  _33
REMARK   14  A    between atoms: _33  and  _34
REMARK   15  A    between atoms: _33  and  _36
REMARK   16  A    between atoms: _36  and  _37
REMARK   17  A    between atoms: _42  and  _44
REMARK   18  A    between atoms: _44  and  _45
REMARK   19  A    between atoms: _44  and  _47
REMARK   20  A    between atoms: _47  and  _48
REMARK   21  A    between atoms: _48  and  _49
REMARK   22  A    between atoms: _49  and  _50
REMARK   23  A    between atoms: _59  and  _61
REMARK   24  A    between atoms: _61  and  _62
REMARK   25  A    between atoms: _61  and  _64
REMARK   26  A    between atoms: _64  and  _65
REMARK   27  A    between atoms: _68  and  _70
REMARK   28  A    between atoms: _70  and  _71
REMARK   29  A    between atoms: _70  and  _73
REMARK   30  A    between atoms: _73  and  _74
REMARK   31  A    between atoms: _79  and  _81
REMARK   32  A    between atoms: _81  and  _82
REMARK   33  A    between atoms: _85  and  _87
REMARK   34  A    between atoms: _87  and  _88
REMARK   35  A    between atoms: _87  and  _90
REMARK   36  A    between atoms: _90  and  _91
REMARK   37  A    between atoms: _96  and  _97
REMARK   38  A    between atoms: _99  and  _101
REMARK   39  A    between atoms: _101  and  _102
REMARK   40  A    between atoms: _101  and  _104
REMARK   41  A    between atoms: _104  and  _105
REMARK   42  A    between atoms: _105  and  _106
REMARK   43  A    between atoms: _109  and  _111
REMARK   44  A    between atoms: _111  and  _112
REMARK   45  A    between atoms: _111  and  _114
REMARK   46  A    between atoms: _114  and  _115
REMARK   47  A    between atoms: _120  and  _122
REMARK   48  A    between atoms: _122  and  _123
REMARK   49  A    between atoms: _126  and  _128
REMARK   50  A    between atoms: _128  and  _129
REMARK   51  A    between atoms: _132  and  _134
REMARK   52  A    between atoms: _134  and  _135
REMARK   53  A    between atoms: _137  and  _139
REMARK   54  A    between atoms: _139  and  _140
REMARK   55  A    between atoms: _142  and  _144
REMARK   56  A    between atoms: _144  and  _145
REMARK   57  A    between atoms: _144  and  _147
REMARK   58  A    between atoms: _147  and  _148
REMARK   59  A    between atoms: _151  and  _153
REMARK   60  A    between atoms: _153  and  _154
REMARK   61  A    between atoms: _153  and  _156
REMARK   62  A    between atoms: _156  and  _157
REMARK   63  A    between atoms: _162  and  _163
REMARK   64  A    between atoms: _165  and  _167
REMARK   65  A    between atoms: _167  and  _168
REMARK   66  A    between atoms: _171  and  _173
REMARK   67  A    between atoms: _173  and  _174
REMARK   68  A    between atoms: _173  and  _176
REMARK   69  A    between atoms: _176  and  _177
REMARK   70  A    between atoms: _181  and  _182
REMARK   71  A    between atoms: _187  and  _189
REMARK   72  A    between atoms: _189  and  _190
REMARK   73  A    between atoms: _193  and  _194
REMARK   74  A    between atoms: _199  and  _201
REMARK   75  A    between atoms: _201  and  _202
REMARK   76  A    between atoms: _201  and  _204
REMARK   77  A    between atoms: _204  and  _205
REMARK   78  A    between atoms: _210  and  _212
REMARK   79  A    between atoms: _212  and  _213
REMARK   80  A    between atoms: _212  and  _215
REMARK   81  A    between atoms: _215  and  _216
REMARK   82  A    between atoms: _221  and  _222
REMARK   83  A    between atoms: _224  and  _226
REMARK   84  A    between atoms: _226  and  _227
REMARK   85  A    between atoms: _226  and  _229
REMARK   86  A    between atoms: _229  and  _230
REMARK   87  A    between atoms: _230  and  _231
REMARK   88  A    between atoms: _234  and  _236
REMARK   89  A    between atoms: _236  and  _237
REMARK   90  A    between atoms: _236  and  _239
REMARK   91  A    between atoms: _239  and  _240
REMARK   92  A    between atoms: _243  and  _245
REMARK   93  A    between atoms: _245  and  _246
REMARK   94  A    between atoms: _245  and  _248
REMARK   95  A    between atoms: _248  and  _249
REMARK   96  A    between atoms: _252  and  _254
REMARK   97  A    between atoms: _254  and  _255
REMARK   98  A    between atoms: _254  and  _257
REMARK   99  A    between atoms: _257  and  _258
REMARK  100  A    between atoms: _261  and  _263
REMARK  101  A    between atoms: _263  and  _264
REMARK  102  A    between atoms: _263  and  _266
REMARK  103  A    between atoms: _269  and  _271
REMARK  104  A    between atoms: _271  and  _272
REMARK  105  A    between atoms: _274  and  _276
REMARK  106  A    between atoms: _276  and  _277
REMARK  107  A    between atoms: _276  and  _279
REMARK  108  A    between atoms: _279  and  _280
REMARK  109  A    between atoms: _280  and  _281
REMARK  110  A    between atoms: _283  and  _285
REMARK  111  A    between atoms: _285  and  _286
REMARK  112  A    between atoms: _285  and  _288
REMARK  113  A    between atoms: _288  and  _289
REMARK  114  A    between atoms: _291  and  _293
REMARK  115  A    between atoms: _293  and  _294
REMARK  116  A    between atoms: _293  and  _296
REMARK  117  A    between atoms: _296  and  _297
REMARK  118  A    between atoms: _300  and  _302
REMARK  119  A    between atoms: _302  and  _303
REMARK  120  A    between atoms: _302  and  _305
REMARK  121  A    between atoms: _308  and  _310
REMARK  122  A    between atoms: _310  and  _311
REMARK  123  A    between atoms: _310  and  _313
REMARK  124  A    between atoms: _313  and  _314
REMARK  125  A    between atoms: _317  and  _319
REMARK  126  A    between atoms: _319  and  _320
REMARK  127  A    between atoms: _319  and  _322
REMARK  128  A    between atoms: _322  and  _323
REMARK  129  A    between atoms: _328  and  _330
REMARK  130  A    between atoms: _330  and  _331
REMARK  131  A    between atoms: _330  and  _333
REMARK  132  A    between atoms: _333  and  _334
REMARK  133  A    between atoms: _337  and  _339
REMARK  134  A    between atoms: _339  and  _340
REMARK  135  A    between atoms: _343  and  _345
REMARK  136  A    between atoms: _345  and  _346
REMARK  137  A    between atoms: _349  and  _351
REMARK  138  A    between atoms: _351  and  _352
REMARK  139  A    between atoms: _351  and  _354
REMARK  140  A    between atoms: _354  and  _355
REMARK  141  A    between atoms: _358  and  _360
REMARK  142  A    between atoms: _360  and  _361
REMARK  143  A    between atoms: _360  and  _363
REMARK  144  A    between atoms: _363  and  _364
REMARK  145  A    between atoms: _366  and  _368
REMARK  146  A    between atoms: _368  and  _369
REMARK  147  A    between atoms: _368  and  _371
REMARK  148  A    between atoms: _371  and  _372
REMARK  149  A    between atoms: _377  and  _379
REMARK  150  A    between atoms: _379  and  _380
REMARK  151  A    between atoms: _383  and  _385
REMARK  152  A    between atoms: _385  and  _386
REMARK  153  A    between atoms: _385  and  _388
REMARK  154  A    between atoms: _388  and  _389
REMARK  155  A    between atoms: _389  and  _390
REMARK  156  A    between atoms: _393  and  _395
REMARK  157  A    between atoms: _395  and  _396
REMARK  158  A    between atoms: _395  and  _398
REMARK  159  A    between atoms: _401  and  _403
REMARK  160  A    between atoms: _403  and  _404
REMARK  161  A    between atoms: _403  and  _406
REMARK  162  A    between atoms: _406  and  _407
REMARK  163  A    between atoms: _410  and  _412
REMARK  164  A    between atoms: _412  and  _413
REMARK  165  A    between atoms: _415  and  _417
REMARK  166  A    between atoms: _417  and  _418
REMARK  167  A    between atoms: _417  and  _420
REMARK  168  A    between atoms: _420  and  _421
REMARK  169  A    between atoms: _421  and  _422
REMARK  170  A    between atoms: _425  and  _427
REMARK  171  A    between atoms: _427  and  _428
REMARK  172  A    between atoms: _427  and  _430
REMARK  173  A    between atoms: _430  and  _431
REMARK  174  A    between atoms: _437  and  _439
REMARK  175  A    between atoms: _439  and  _440
REMARK  176  A    between atoms: _439  and  _442
REMARK  177  A    between atoms: _445  and  _447
REMARK  178  A    between atoms: _447  and  _448
REMARK  179  A    between atoms: _447  and  _450
REMARK  180  A    between atoms: _450  and  _451
REMARK                            x       y       z     vdW  Elec       q    Type
REMARK                         _______ _______ _______ _____ _____    ______ ____
ROOT
ATOM      1  CB  HIS A   1      62.643  13.727  51.571  0.00  0.00    +0.072 C 
ENDROOT
BRANCH   1   2
ATOM      2  CG  HIS A   1      62.159  14.370  50.306  0.00  0.00    +0.082 A 
ATOM      3  ND1 HIS A   1      62.669  15.560  49.833  0.00  0.00    -0.227 NA
ATOM      4  CE1 HIS A   1      62.076  15.869  48.693  0.00  0.00    +0.199 A 
ATOM      5  NE2 HIS A   1      61.198  14.923  48.410  0.00  0.00    -0.221 NA
ATOM      6  CD2 HIS A   1      61.230  13.973  49.403  0.00  0.00    +0.115 A 
ENDBRANCH   1   2
BRANCH   1   7
ATOM      7  CA  HIS A   1      63.412  12.425  51.335  0.00  0.00    +0.139 C 
BRANCH   7   8
ATOM      8  N   HIS A   1      62.510  11.395  50.830  0.00  0.00    -0.239 NA
ATOM      9  H   HIS A   1      61.697  11.105  51.411  0.00  0.00    +0.142 HD
ENDBRANCH   7   8
BRANCH   7  10
ATOM     10  C   HIS A   1      63.998  11.882  52.633  0.00  0.00    +0.224 C 
ATOM     11  O   HIS A   1      63.312  11.799  53.649  0.00  0.00    -0.287 OA
ENDBRANCH   7  10
ENDBRANCH   1   7
TORSDOF 4
REMARK  Name = ../refined-set-2016/1n3i/1n3i_pocket.pdb
REMARK  180 active torsions:
REMARK  status: ('A' for Active; 'I' for Inactive)
REMARK    1  A    between atoms: _1  and  _3
REMARK    2  A    between atoms: _3  and  _4
REMARK    3  A    between atoms: _6  and  _8
REMARK    4  A    between atoms: _8  and  _9
REMARK    5  A    between atoms: _8  and  _11
REMARK    6  A    between atoms: _11  and  _12
REMARK    7  A    between atoms: _14  and  _16
REMARK    8  A    between atoms: _16  and  _17
REMARK    9  A    between atoms: _19  and  _21
REMARK   10  A    between atoms: _21  and  _22
REMARK   11  A    between atoms: _25  and  _27
REMARK   12  A    between atoms: _27  and  _28
REMARK   13  A    between atoms: _31  and  _33
REMARK   14  A    between atoms: _33  and  _34
REMARK   15  A    between atoms: _33  and  _36
REMARK   16  A    between atoms: _36  and  _37
REMARK   17  A    between atoms: _42  and  _44
REMARK   18  A    between atoms: _44  and  _45
REMARK   19  A    between atoms: _44  and  _47
REMARK   20  A    between atoms: _47  and  _48
REMARK   21  A    between atoms: _48  and  _49
REMARK   22  A    between atoms: _49  and  _50
REMARK   23  A    between atoms: _59  and  _61
REMARK   24  A    between atoms: _61  and  _62
REMARK   25  A    between atoms: _61  and  _64
REMARK   26  A    between atoms: _64  and  _65
REMARK   27  A    between atoms: _68  and  _70
REMARK   28  A    between atoms: _70  and  _71
REMARK   29  A    between atoms: _70  and  _73
REMARK   30  A    between atoms: _73  and  _74
REMARK   31  A    between atoms: _79  and  _81
REMARK   32  A    between atoms: _81  and  _82
REMARK   33  A    between atoms: _85  and  _87
REMARK   34  A    between atoms: _87  and  _88
REMARK   35  A    between atoms: _87  and  _90
REMARK   36  A    between atoms: _90  and  _91
REMARK   37  A    between atoms: _96  and  _97
REMARK   38  A    between atoms: _99  and  _101
REMARK   39  A    between atoms: _101  and  _102
REMARK   40  A    between atoms: _101  and  _104
REMARK   41  A    between atoms: _104  and  _105
REMARK   42  A    between atoms: _105  and  _106
REMARK   43  A    between atoms: _109  and  _111
REMARK   44  A    between atoms: _111  and  _112
REMARK   45  A    between atoms: _111  and  _114
REMARK   46  A    between atoms: _114  and  _115
REMARK   47  A    between atoms: _120  and  _122
REMARK   48  A    between atoms: _122  and  _123
REMARK   49  A    between atoms: _126  and  _128
REMARK   50  A    between atoms: _128  and  _129
REMARK   51  A    between atoms: _132  and  _134
REMARK   52  A    between atoms: _134  and  _135
REMARK   53  A    between atoms: _137  and  _139
REMARK   54  A    between atoms: _139  and  _140
REMARK   55  A    between atoms: _142  and  _144
REMARK   56  A    between atoms: _144  and  _145
REMARK   57  A    between atoms: _144  and  _147
REMARK   58  A    between atoms: _147  and  _148
REMARK   59  A    between atoms: _151  and  _153
REMARK   60  A    between atoms: _153  and  _154
REMARK   61  A    between atoms: _153  and  _156
REMARK   62  A    between atoms: _156  and  _157
REMARK   63  A    between atoms: _162  and  _163
REMARK   64  A    between atoms: _165  and  _167
REMARK   65  A    between atoms: _167  and  _168
REMARK   66  A    between atoms: _171  and  _173
REMARK   67  A    between atoms: _173  and  _174
REMARK   68  A    between atoms: _173  and  _176
REMARK   69  A    between atoms: _176  and  _177
REMARK   70  A    between atoms: _181  and  _182
REMARK   71  A    between atoms: _187  and  _189
REMARK   72  A    between atoms: _189  and  _190
REMARK   73  A    between atoms: _193  and  _194
REMARK   74  A    between atoms: _199  and  _201
REMARK   75  A    between atoms: _201  and  _202
REMARK   76  A    between atoms: _201  and  _204
REMARK   77  A    between atoms: _204  and  _205
REMARK   78  A    between atoms: _210  and  _212
REMARK   79  A    between atoms: _212  and  _213
REMARK   80  A    between atoms: _212  and  _215
REMARK   81  A    between atoms: _215  and  _216
REMARK   82  A    between atoms: _221  and  _222
REMARK   83  A    between atoms: _224  and  _226
REMARK   84  A    between atoms: _226  and  _227
REMARK   85  A    between atoms: _226  and  _229
REMARK   86  A    between atoms: _229  and  _230
REMARK   87  A    between atoms: _230  and  _231
REMARK   88  A    between atoms: _234  and  _236
REMARK   89  A    between atoms: _236  and  _237
REMARK   90  A    between atoms: _236  and  _239
REMARK   91  A    between atoms: _239  and  _240
REMARK   92  A    between atoms: _243  and  _245
REMARK   93  A    between atoms: _245  and  _246
REMARK   94  A    between atoms: _245  and  _248
REMARK   95  A    between atoms: _248  and  _249
REMARK   96  A    between atoms: _252  and  _254
REMARK   97  A    between atoms: _254  and  _255
REMARK   98  A    between atoms: _254  and  _257
REMARK   99  A    between atoms: _257  and  _258
REMARK  100  A    between atoms: _261  and  _263
REMARK  101  A    between atoms: _263  and  _264
REMARK  102  A    between atoms: _263  and  _266
REMARK  103  A    between atoms: _269  and  _271
REMARK  104  A    between atoms: _271  and  _272
REMARK  105  A    between atoms: _274  and  _276
REMARK  106  A    between atoms: _276  and  _277
REMARK  107  A    between atoms: _276  and  _279
REMARK  108  A    between atoms: _279  and  _280
REMARK  109  A    between atoms: _280  and  _281
REMARK  110  A    between atoms: _283  and  _285
REMARK  111  A    between atoms: _285  and  _286
REMARK  112  A    between atoms: _285  and  _288
REMARK  113  A    between atoms: _288  and  _289
REMARK  114  A    between atoms: _291  and  _293
REMARK  115  A    between atoms: _293  and  _294
REMARK  116  A    between atoms: _293  and  _296
REMARK  117  A    between atoms: _296  and  _297
REMARK  118  A    between atoms: _300  and  _302
REMARK  119  A    between atoms: _302  and  _303
REMARK  120  A    between atoms: _302  and  _305
REMARK  121  A    between atoms: _308  and  _310
REMARK  122  A    between atoms: _310  and  _311
REMARK  123  A    between atoms: _310  and  _313
REMARK  124  A    between atoms: _313  and  _314
REMARK  125  A    between atoms: _317  and  _319
REMARK  126  A    between atoms: _319  and  _320
REMARK  127  A    between atoms: _319  and  _322
REMARK  128  A    between atoms: _322  and  _323
REMARK  129  A    between atoms: _328  and  _330
REMARK  130  A    between atoms: _330  and  _331
REMARK  131  A    between atoms: _330  and  _333
REMARK  132  A    between atoms: _333  and  _334
REMARK  133  A    between atoms: _337  and  _339
REMARK  134  A    between atoms: _339  and  _340
REMARK  135  A    between atoms: _343  and  _345
REMARK  136  A    between atoms: _345  and  _346
REMARK  137  A    between atoms: _349  and  _351
REMARK  138  A    between atoms: _351  and  _352
REMARK  139  A    between atoms: _351  and  _354
REMARK  140  A    between atoms: _354  and  _355
REMARK  141  A    between atoms: _358  and  _360
REMARK  142  A    between atoms: _360  and  _361
REMARK  143  A    between atoms: _360  and  _363
REMARK  144  A    between atoms: _363  and  _364
REMARK  145  A    between atoms: _366  and  _368
REMARK  146  A    between atoms: _368  and  _369
REMARK  147  A    between atoms: _368  and  _371
REMARK  148  A    between atoms: _371  and  _372
REMARK  149  A    between atoms: _377  and  _379
REMARK  150  A    between atoms: _379  and  _380
REMARK  151  A    between atoms: _383  and  _385
REMARK  152  A    between atoms: _385  and  _386
REMARK  153  A    between atoms: _385  and  _388
REMARK  154  A    between atoms: _388  and  _389
REMARK  155  A    between atoms: _389  and  _390
REMARK  156  A    between atoms: _393  and  _395
REMARK  157  A    between atoms: _395  and  _396
REMARK  158  A    between atoms: _395  and  _398
REMARK  159  A    between atoms: _401  and  _403
REMARK  160  A    between atoms: _403  and  _404
REMARK  161  A    between atoms: _403  and  _406
REMARK  162  A    between atoms: _406  and  _407
REMARK  163  A    between atoms: _410  and  _412
REMARK  164  A    between atoms: _412  and  _413
REMARK  165  A    between atoms: _415  and  _417
REMARK  166  A    between atoms: _417  and  _418
REMARK  167  A    between atoms: _417  and  _420
REMARK  168  A    between atoms: _420  and  _421
REMARK  169  A    between atoms: _421  and  _422
REMARK  170  A    between atoms: _425  and  _427
REMARK  171  A    between atoms: _427  and  _428
REMARK  172  A    between atoms: _427  and  _430
REMARK  173  A    between atoms: _430  and  _431
REMARK  174  A    between atoms: _437  and  _439
REMARK  175  A    between atoms: _439  and  _440
REMARK  176  A    between atoms: _439  and  _442
REMARK  177  A    between atoms: _445  and  _447
REMARK  178  A    between atoms: _447  and  _448
REMARK  179  A    between atoms: _447  and  _450
REMARK  180  A    between atoms: _450  and  _451
REMARK                            x       y       z     vdW  Elec       q    Type
REMARK                         _______ _______ _______ _____ _____    ______ ____
ROOT
ATOM      1  CA  HIS A   3      58.215  22.147  50.891  0.00  0.00    +0.155 C 
ENDROOT
BRANCH   1   3
ATOM      2  C   ILE A   2      60.238  21.313  51.940  0.00  0.00    +0.241 C 
ATOM      3  N   HIS A   3      58.911  21.382  51.919  0.00  0.00    -0.297 N 
ATOM      4  H   HIS A   3      58.361  20.883  52.647  0.00  0.00    +0.150 HD
ATOM      5  O   ILE A   2      60.951  21.894  51.111  0.00  0.00    -0.273 OA
BRANCH   2   6
ATOM      6  CA  ILE A   2      60.869  20.456  53.038  0.00  0.00    +0.148 C 
BRANCH   6   8
ATOM      7  C   ARG A   1      62.586  19.042  52.090  0.00  0.00    +0.238 C 
ATOM      8  N   ILE A   2      62.236  20.222  52.595  0.00  0.00    -0.297 N 
ATOM      9  H   ILE A   2      62.942  20.981  52.674  0.00  0.00    +0.150 HD
ATOM     10  O   ARG A   1      61.816  18.079  52.046  0.00  0.00    -0.274 OA
BRANCH   7  11
ATOM     11  CA  ARG A   1      64.015  18.916  51.574  0.00  0.00    +0.145 C 
BRANCH  11  12
ATOM     12  N   ARG A   1      64.335  17.512  51.337  0.00  0.00    -0.238 NA
ATOM     13  H   ARG A   1      63.582  16.873  51.010  0.00  0.00    +0.142 HD
ENDBRANCH  11  12
BRANCH  11  14
ATOM     14  CB  ARG A   1      64.132  19.720  50.266  0.00  0.00    +0.030 C 
BRANCH  14  15
ATOM     15  CG  ARG A   1      63.155  19.266  49.161  0.00  0.00    +0.045 C 
BRANCH  15  16
ATOM     16  CD  ARG A   1      62.749  20.419  48.225  0.00  0.00    +0.174 C 
BRANCH  16  17
ATOM     17  NE  ARG A   1      63.880  20.980  47.488  0.00  0.00    -0.265 N 
ATOM     18  HE  ARG A   1      64.339  21.828  47.877  0.00  0.00    +0.259 HD
ATOM     19  CZ  ARG A   1      64.362  20.480  46.355  0.00  0.00    +0.342 C 
ATOM     20  NH2 ARG A   1      63.810  19.403  45.811  0.00  0.00    -0.292 N 
ATOM     21 HH21 ARG A   1      62.997  18.947  46.271  0.00  0.00    +0.255 HD
ATOM     22 HH22 ARG A   1      64.191  19.015  44.924  0.00  0.00    +0.255 HD
ATOM     23  NH1 ARG A   1      65.409  21.051  45.772  0.00  0.00    -0.292 N 
ATOM     24 HH11 ARG A   1      65.851  21.889  46.202  0.00  0.00    +0.255 HD
ATOM     25 HH12 ARG A   1      65.787  20.661  44.885  0.00  0.00    +0.255 HD
ENDBRANCH  16  17
ENDBRANCH  15  16
ENDBRANCH  14  15
ENDBRANCH  11  14
ENDBRANCH   7  11
ENDBRANCH   6   8
BRANCH   6  26
ATOM     26  CB  ILE A   2      60.790  21.186  54.412  0.00  0.00    +0.027 C 
ATOM     27  CG2 ILE A   2      61.476  20.338  55.481  0.00  0.00    +0.002 C 
BRANCH  26  28
ATOM     28  CG1 ILE A   2      61.417  22.576  54.331  0.00  0.00    +0.002 C 
ATOM     29  CD1 ILE A   2      61.195  23.410  55.591  0.00  0.00    +0.000 C 
ENDBRANCH  26  28
ENDBRANCH   6  26
ENDBRANCH   2   6
ENDBRANCH   1   3
BRANCH   1  30
ATOM     30  C   HIS A   3      57.198  23.111  51.485  0.00  0.00    +0.241 C 
ATOM     31  O   HIS A   3      56.713  22.909  52.599  0.00  0.00    -0.273 OA
ATOM     32  N   ALA A   4      56.868  24.153  50.728  0.00  0.00    -0.297 N 
ATOM     33  H   ALA A   4      57.310  24.264  49.793  0.00  0.00    +0.150 HD
BRANCH  32  34
ATOM     34  CA  ALA A   4      55.897  25.146  51.182  0.00  0.00    +0.149 C 
ATOM     35  CB  ALA A   4      55.760  26.258  50.143  0.00  0.00    +0.031 C 
BRANCH  34  36
ATOM     36  C   ALA A   4      54.536  24.516  51.448  0.00  0.00    +0.241 C 
ATOM     37  O   ALA A   4      53.828  24.934  52.362  0.00  0.00    -0.273 OA
ATOM     38  N   TYR A   5      54.164  23.511  50.660  0.00  0.00    -0.297 N 
ATOM     39  H   TYR A   5      54.798  23.180  49.905  0.00  0.00    +0.150 HD
BRANCH  38  40
ATOM     40  CA  TYR A   5      52.866  22.873  50.854  0.00  0.00    +0.153 C 
BRANCH  40  41
ATOM     41  C   TYR A   5      52.744  22.163  52.197  0.00  0.00    +0.241 C 
ATOM     42  N   GLU A   6      53.867  22.009  52.892  0.00  0.00    -0.298 N 
ATOM     43  H   GLU A   6      54.765  22.352  52.496  0.00  0.00    +0.150 HD
ATOM     44  O   TYR A   5      51.652  21.761  52.599  0.00  0.00    -0.273 OA
BRANCH  42  45
ATOM     45  CA  GLU A   6      53.858  21.368  54.199  0.00  0.00    +0.137 C 
BRANCH  45  46
ATOM     46  C   GLU A   6      53.434  22.366  55.274  0.00  0.00    +0.227 C 
ATOM     47  O   GLU A   6      53.312  22.014  56.450  0.00  0.00    -0.286 OA
ENDBRANCH  45  46
BRANCH  45  48
ATOM     48  CB  GLU A   6      55.234  20.765  54.492  0.00  0.00    +0.039 C 
BRANCH  48  49
ATOM     49  CG  GLU A   6      55.479  19.506  53.667  0.00  0.00    +0.116 C 
BRANCH  49  50
ATOM     50  CD  GLU A   6      56.945  19.168  53.493  0.00  0.00    +0.365 C 
ATOM     51  OE2 GLU A   6      57.790  19.826  54.129  0.00  0.00    -0.246 OA
ATOM     52  OE1 GLU A   6      57.246  18.239  52.713  0.00  0.00    -0.246 OA
ENDBRANCH  49  50
ENDBRANCH  48  49
ENDBRANCH  45  48
ENDBRANCH  42  45
ENDBRANCH  40  41
BRANCH  40  53
ATOM     53  CB  TYR A   5      52.547  21.906  49.701  0.00  0.00    +0.055 C 
BRANCH  53  54
ATOM     54  CG  TYR A   5      53.530  20.774  49.465  0.00  0.00    -0.020 A 
ATOM     55  CD2 TYR A   5      53.703  19.757  50.405  0.00  0.00    -0.001 A 
ATOM     56  CE2 TYR A   5      54.578  18.689  50.163  0.00  0.00    +0.036 A 
ATOM     57  CZ  TYR A   5      55.287  18.640  48.968  0.00  0.00    +0.134 A 
ATOM     58  CE1 TYR A   5      55.132  19.636  48.024  0.00  0.00    +0.036 A 
ATOM     59  CD1 TYR A   5      54.257  20.699  48.275  0.00  0.00    -0.001 A 
BRANCH  57  60
ATOM     60  OH  TYR A   5      56.149  17.598  48.718  0.00  0.00    -0.506 OA
ATOM     61  HH  TYR A   5      55.857  17.118  47.902  0.00  0.00    +0.292 HD
ENDBRANCH  57  60
ENDBRANCH  53  54
ENDBRANCH  40  53
ENDBRANCH  38  40
ENDBRANCH  34  36
ENDBRANCH  32  34
ENDBRANCH   1  30
BRANCH   1  62
ATOM     62  CB  HIS A   3      57.491  21.200  49.925  0.00  0.00    +0.076 C 
BRANCH  62  63
ATOM     63  CG  HIS A   3      58.320  20.037  49.476  0.00  0.00    +0.082 A 
ATOM     64  ND1 HIS A   3      58.612  18.969  50.297  0.00  0.00    -0.227 NA
ATOM     65  CE1 HIS A   3      59.353  18.098  49.634  0.00  0.00    +0.199 A 
ATOM     66  NE2 HIS A   3      59.552  18.562  48.414  0.00  0.00    -0.221 NA
ATOM     67  CD2 HIS A   3      58.916  19.773  48.289  0.00  0.00    +0.115 A 
ENDBRANCH  62  63
ENDBRANCH   1  62
TORSDOF 26
REMARK  Name = ../refined-set-2016/1n3i/1n3i_pocket.pdb
REMARK  180 active torsions:
REMARK  status: ('A' for Active; 'I' for Inactive)
REMARK    1  A    between atoms: _1  and  _3
REMARK    2  A    between atoms: _3  and  _4
REMARK    3  A    between atoms: _6  and  _8
REMARK    4  A    between atoms: _8  and  _9
REMARK    5  A    between atoms: _8  and  _11
REMARK    6  A    between atoms: _11  and  _12
REMARK    7  A    between atoms: _14  and  _16
REMARK    8  A    between atoms: _16  and  _17
REMARK    9  A    between atoms: _19  and  _21
REMARK   10  A    between atoms: _21  and  _22
REMARK   11  A    between atoms: _25  and  _27
REMARK   12  A    between atoms: _27  and  _28
REMARK   13  A    between atoms: _31  and  _33
REMARK   14  A    between atoms: _33  and  _34
REMARK   15  A    between atoms: _33  and  _36
REMARK   16  A    between atoms: _36  and  _37
REMARK   17  A    between atoms: _42  and  _44
REMARK   18  A    between atoms: _44  and  _45
REMARK   19  A    between atoms: _44  and  _47
REMARK   20  A    between atoms: _47  and  _48
REMARK   21  A    between atoms: _48  and  _49
REMARK   22  A    between atoms: _49  and  _50
REMARK   23  A    between atoms: _59  and  _61
REMARK   24  A    between atoms: _61  and  _62
REMARK   25  A    between atoms: _61  and  _64
REMARK   26  A    between atoms: _64  and  _65
REMARK   27  A    between atoms: _68  and  _70
REMARK   28  A    between atoms: _70  and  _71
REMARK   29  A    between atoms: _70  and  _73
REMARK   30  A    between atoms: _73  and  _74
REMARK   31  A    between atoms: _79  and  _81
REMARK   32  A    between atoms: _81  and  _82
REMARK   33  A    between atoms: _85  and  _87
REMARK   34  A    between atoms: _87  and  _88
REMARK   35  A    between atoms: _87  and  _90
REMARK   36  A    between atoms: _90  and  _91
REMARK   37  A    between atoms: _96  and  _97
REMARK   38  A    between atoms: _99  and  _101
REMARK   39  A    between atoms: _101  and  _102
REMARK   40  A    between atoms: _101  and  _104
REMARK   41  A    between atoms: _104  and  _105
REMARK   42  A    between atoms: _105  and  _106
REMARK   43  A    between atoms: _109  and  _111
REMARK   44  A    between atoms: _111  and  _112
REMARK   45  A    between atoms: _111  and  _114
REMARK   46  A    between atoms: _114  and  _115
REMARK   47  A    between atoms: _120  and  _122
REMARK   48  A    between atoms: _122  and  _123
REMARK   49  A    between atoms: _126  and  _128
REMARK   50  A    between atoms: _128  and  _129
REMARK   51  A    between atoms: _132  and  _134
REMARK   52  A    between atoms: _134  and  _135
REMARK   53  A    between atoms: _137  and  _139
REMARK   54  A    between atoms: _139  and  _140
REMARK   55  A    between atoms: _142  and  _144
REMARK   56  A    between atoms: _144  and  _145
REMARK   57  A    between atoms: _144  and  _147
REMARK   58  A    between atoms: _147  and  _148
REMARK   59  A    between atoms: _151  and  _153
REMARK   60  A    between atoms: _153  and  _154
REMARK   61  A    between atoms: _153  and  _156
REMARK   62  A    between atoms: _156  and  _157
REMARK   63  A    between atoms: _162  and  _163
REMARK   64  A    between atoms: _165  and  _167
REMARK   65  A    between atoms: _167  and  _168
REMARK   66  A    between atoms: _171  and  _173
REMARK   67  A    between atoms: _173  and  _174
REMARK   68  A    between atoms: _173  and  _176
REMARK   69  A    between atoms: _176  and  _177
REMARK   70  A    between atoms: _181  and  _182
REMARK   71  A    between atoms: _187  and  _189
REMARK   72  A    between atoms: _189  and  _190
REMARK   73  A    between atoms: _193  and  _194
REMARK   74  A    between atoms: _199  and  _201
REMARK   75  A    between atoms: _201  and  _202
REMARK   76  A    between atoms: _201  and  _204
REMARK   77  A    between atoms: _204  and  _205
REMARK   78  A    between atoms: _210  and  _212
REMARK   79  A    between atoms: _212  and  _213
REMARK   80  A    between atoms: _212  and  _215
REMARK   81  A    between atoms: _215  and  _216
REMARK   82  A    between atoms: _221  and  _222
REMARK   83  A    between atoms: _224  and  _226
REMARK   84  A    between atoms: _226  and  _227
REMARK   85  A    between atoms: _226  and  _229
REMARK   86  A    between atoms: _229  and  _230
REMARK   87  A    between atoms: _230  and  _231
REMARK   88  A    between atoms: _234  and  _236
REMARK   89  A    between atoms: _236  and  _237
REMARK   90  A    between atoms: _236  and  _239
REMARK   91  A    between atoms: _239  and  _240
REMARK   92  A    between atoms: _243  and  _245
REMARK   93  A    between atoms: _245  and  _246
REMARK   94  A    between atoms: _245  and  _248
REMARK   95  A    between atoms: _248  and  _249
REMARK   96  A    between atoms: _252  and  _254
REMARK   97  A    between atoms: _254  and  _255
REMARK   98  A    between atoms: _254  and  _257
REMARK   99  A    between atoms: _257  and  _258
REMARK  100  A    between atoms: _261  and  _263
REMARK  101  A    between atoms: _263  and  _264
REMARK  102  A    between atoms: _263  and  _266
REMARK  103  A    between atoms: _269  and  _271
REMARK  104  A    between atoms: _271  and  _272
REMARK  105  A    between atoms: _274  and  _276
REMARK  106  A    between atoms: _276  and  _277
REMARK  107  A    between atoms: _276  and  _279
REMARK  108  A    between atoms: _279  and  _280
REMARK  109  A    between atoms: _280  and  _281
REMARK  110  A    between atoms: _283  and  _285
REMARK  111  A    between atoms: _285  and  _286
REMARK  112  A    between atoms: _285  and  _288
REMARK  113  A    between atoms: _288  and  _289
REMARK  114  A    between atoms: _291  and  _293
REMARK  115  A    between atoms: _293  and  _294
REMARK  116  A    between atoms: _293  and  _296
REMARK  117  A    between atoms: _296  and  _297
REMARK  118  A    between atoms: _300  and  _302
REMARK  119  A    between atoms: _302  and  _303
REMARK  120  A    between atoms: _302  and  _305
REMARK  121  A    between atoms: _308  and  _310
REMARK  122  A    between atoms: _310  and  _311
REMARK  123  A    between atoms: _310  and  _313
REMARK  124  A    between atoms: _313  and  _314
REMARK  125  A    between atoms: _317  and  _319
REMARK  126  A    between atoms: _319  and  _320
REMARK  127  A    between atoms: _319  and  _322
REMARK  128  A    between atoms: _322  and  _323
REMARK  129  A    between atoms: _328  and  _330
REMARK  130  A    between atoms: _330  and  _331
REMARK  131  A    between atoms: _330  and  _333
REMARK  132  A    between atoms: _333  and  _334
REMARK  133  A    between atoms: _337  and  _339
REMARK  134  A    between atoms: _339  and  _340
REMARK  135  A    between atoms: _343  and  _345
REMARK  136  A    between atoms: _345  and  _346
REMARK  137  A    between atoms: _349  and  _351
REMARK  138  A    between atoms: _351  and  _352
REMARK  139  A    between atoms: _351  and  _354
REMARK  140  A    between atoms: _354  and  _355
REMARK  141  A    between atoms: _358  and  _360
REMARK  142  A    between atoms: _360  and  _361
REMARK  143  A    between atoms: _360  and  _363
REMARK  144  A    between atoms: _363  and  _364
REMARK  145  A    between atoms: _366  and  _368
REMARK  146  A    between atoms: _368  and  _369
REMARK  147  A    between atoms: _368  and  _371
REMARK  148  A    between atoms: _371  and  _372
REMARK  149  A    between atoms: _377  and  _379
REMARK  150  A    between atoms: _379  and  _380
REMARK  151  A    between atoms: _383  and  _385
REMARK  152  A    between atoms: _385  and  _386
REMARK  153  A    between atoms: _385  and  _388
REMARK  154  A    between atoms: _388  and  _389
REMARK  155  A    between atoms: _389  and  _390
REMARK  156  A    between atoms: _393  and  _395
REMARK  157  A    between atoms: _395  and  _396
REMARK  158  A    between atoms: _395  and  _398
REMARK  159  A    between atoms: _401  and  _403
REMARK  160  A    between atoms: _403  and  _404
REMARK  161  A    between atoms: _403  and  _406
REMARK  162  A    between atoms: _406  and  _407
REMARK  163  A    between atoms: _410  and  _412
REMARK  164  A    between atoms: _412  and  _413
REMARK  165  A    between atoms: _415  and  _417
REMARK  166  A    between atoms: _417  and  _418
REMARK  167  A    between atoms: _417  and  _420
REMARK  168  A    between atoms: _420  and  _421
REMARK  169  A    between atoms: _421  and  _422
REMARK  170  A    between atoms: _425  and  _427
REMARK  171  A    between atoms: _427  and  _428
REMARK  172  A    between atoms: _427  and  _430
REMARK  173  A    between atoms: _430  and  _431
REMARK  174  A    between atoms: _437  and  _439
REMARK  175  A    between atoms: _439  and  _440
REMARK  176  A    between atoms: _439  and  _442
REMARK  177  A    between atoms: _445  and  _447
REMARK  178  A    between atoms: _447  and  _448
REMARK  179  A    between atoms: _447  and  _450
REMARK  180  A    between atoms: _450  and  _451
REMARK                            x       y       z     vdW  Elec       q    Type
REMARK                         _______ _______ _______ _____ _____    ______ ____
ROOT
ATOM      1  CA  ALA A   3      59.122  17.575  37.743  0.00  0.00    +0.149 C 
ATOM      2  CB  ALA A   3      59.918  18.713  37.109  0.00  0.00    +0.031 C 
ENDROOT
BRANCH   1   5
ATOM      3  C   ALA A   2      60.436  16.880  39.634  0.00  0.00    +0.241 C 
ATOM      4  O   ALA A   2      60.097  17.882  40.261  0.00  0.00    -0.273 OA
ATOM      5  N   ALA A   3      60.026  16.645  38.394  0.00  0.00    -0.297 N 
ATOM      6  H   ALA A   3      60.352  15.796  37.890  0.00  0.00    +0.150 HD
BRANCH   3   7
ATOM      7  CA  ALA A   2      61.379  15.870  40.269  0.00  0.00    +0.149 C 
ATOM      8  CB  ALA A   2      60.593  14.818  41.033  0.00  0.00    +0.031 C 
BRANCH   7  10
ATOM      9  C   ASN A   1      63.344  17.139  40.924  0.00  0.00    +0.239 C 
ATOM     10  N   ALA A   2      62.113  16.721  41.185  0.00  0.00    -0.297 N 
ATOM     11  H   ALA A   2      61.660  17.013  42.075  0.00  0.00    +0.150 HD
ATOM     12  O   ASN A   1      63.992  16.777  39.945  0.00  0.00    -0.274 OA
BRANCH   9  13
ATOM     13  CA  ASN A   1      63.943  18.075  41.948  0.00  0.00    +0.154 C 
BRANCH  13  14
ATOM     14  N   ASN A   1      65.342  18.328  41.651  0.00  0.00    -0.238 NA
ATOM     15  H   ASN A   1      65.706  18.146  40.694  0.00  0.00    +0.142 HD
ENDBRANCH  13  14
BRANCH  13  16
ATOM     16  CB  ASN A   1      63.145  19.396  41.988  0.00  0.00    +0.111 C 
BRANCH  16  17
ATOM     17  CG  ASN A   1      63.121  20.141  40.648  0.00  0.00    +0.221 C 
ATOM     18  OD1 ASN A   1      63.349  21.358  40.600  0.00  0.00    -0.275 OA
ATOM     19  ND2 ASN A   1      62.811  19.432  39.571  0.00  0.00    -0.329 N 
ATOM     20 HD21 ASN A   1      62.627  18.412  39.655  0.00  0.00    +0.145 HD
ATOM     21 HD22 ASN A   1      62.752  19.896  38.642  0.00  0.00    +0.145 HD
ENDBRANCH  16  17
ENDBRANCH  13  16
ENDBRANCH   9  13
ENDBRANCH   7  10
ENDBRANCH   3   7
ENDBRANCH   1   5
BRANCH   1  22
ATOM     22  C   ALA A   3      58.276  16.889  36.687  0.00  0.00    +0.241 C 
ATOM     23  N   GLY A   4      57.120  17.477  36.401  0.00  0.00    -0.295 N 
ATOM     24  H   GLY A   4      56.831  18.329  36.923  0.00  0.00    +0.150 HD
ATOM     25  O   ALA A   3      58.651  15.841  36.160  0.00  0.00    -0.273 OA
BRANCH  23  26
ATOM     26  CA  GLY A   4      56.260  16.941  35.368  0.00  0.00    +0.176 C 
BRANCH  26  27
ATOM     27  C   GLY A   4      56.734  17.577  34.073  0.00  0.00    +0.243 C 
ATOM     28  O   GLY A   4      57.073  18.759  34.058  0.00  0.00    -0.273 OA
ATOM     29  N   GLY A   5      56.779  16.804  32.993  0.00  0.00    -0.295 N 
ATOM     30  H   GLY A   5      56.486  15.808  33.057  0.00  0.00    +0.150 HD
BRANCH  29  31
ATOM     31  CA  GLY A   5      57.235  17.344  31.724  0.00  0.00    +0.176 C 
BRANCH  31  32
ATOM     32  C   GLY A   5      56.109  17.935  30.896  0.00  0.00    +0.243 C 
ATOM     33  O   GLY A   5      55.072  17.298  30.709  0.00  0.00    -0.273 OA
ATOM     34  N   LEU A   6      56.310  19.153  30.400  0.00  0.00    -0.298 N 
ATOM     35  H   LEU A   6      57.208  19.640  30.596  0.00  0.00    +0.150 HD
BRANCH  34  36
ATOM     36  CA  LEU A   6      55.298  19.820  29.587  0.00  0.00    +0.137 C 
BRANCH  36  37
ATOM     37  C   LEU A   6      55.696  19.947  28.121  0.00  0.00    +0.227 C 
ATOM     38  O   LEU A   6      54.832  19.984  27.248  0.00  0.00    -0.286 OA
ENDBRANCH  36  37
BRANCH  36  39
ATOM     39  CB  LEU A   6      54.986  21.214  30.139  0.00  0.00    +0.028 C 
BRANCH  39  40
ATOM     40  CG  LEU A   6      54.248  21.319  31.476  0.00  0.00    +0.002 C 
ATOM     41  CD2 LEU A   6      55.182  20.947  32.614  0.00  0.00    +0.000 C 
ATOM     42  CD1 LEU A   6      53.733  22.741  31.651  0.00  0.00    +0.000 C 
ENDBRANCH  39  40
ENDBRANCH  36  39
ENDBRANCH  34  36
ENDBRANCH  31  32
ENDBRANCH  29  31
ENDBRANCH  26  27
ENDBRANCH  23  26
ENDBRANCH   1  22
TORSDOF 16
REMARK  Name = ../refined-set-2016/1n3i/1n3i_pocket.pdb
REMARK  180 active torsions:
REMARK  status: ('A' for Active; 'I' for Inactive)
REMARK    1  A    between atoms: _1  and  _3
REMARK    2  A    between atoms: _3  and  _4
REMARK    3  A    between atoms: _6  and  _8
REMARK    4  A    between atoms: _8  and  _9
REMARK    5  A    between atoms: _8  and  _11
REMARK    6  A    between atoms: _11  and  _12
REMARK    7  A    between atoms: _14  and  _16
REMARK    8  A    between atoms: _16  and  _17
REMARK    9  A    between atoms: _19  and  _21
REMARK   10  A    between atoms: _21  and  _22
REMARK   11  A    between atoms: _25  and  _27
REMARK   12  A    between atoms: _27  and  _28
REMARK   13  A    between atoms: _31  and  _33
REMARK   14  A    between atoms: _33  and  _34
REMARK   15  A    between atoms: _33  and  _36
REMARK   16  A    between atoms: _36  and  _37
REMARK   17  A    between atoms: _42  and  _44
REMARK   18  A    between atoms: _44  and  _45
REMARK   19  A    between atoms: _44  and  _47
REMARK   20  A    between atoms: _47  and  _48
REMARK   21  A    between atoms: _48  and  _49
REMARK   22  A    between atoms: _49  and  _50
REMARK   23  A    between atoms: _59  and  _61
REMARK   24  A    between atoms: _61  and  _62
REMARK   25  A    between atoms: _61  and  _64
REMARK   26  A    between atoms: _64  and  _65
REMARK   27  A    between atoms: _68  and  _70
REMARK   28  A    between atoms: _70  and  _71
REMARK   29  A    between atoms: _70  and  _73
REMARK   30  A    between atoms: _73  and  _74
REMARK   31  A    between atoms: _79  and  _81
REMARK   32  A    between atoms: _81  and  _82
REMARK   33  A    between atoms: _85  and  _87
REMARK   34  A    between atoms: _87  and  _88
REMARK   35  A    between atoms: _87  and  _90
REMARK   36  A    between atoms: _90  and  _91
REMARK   37  A    between atoms: _96  and  _97
REMARK   38  A    between atoms: _99  and  _101
REMARK   39  A    between atoms: _101  and  _102
REMARK   40  A    between atoms: _101  and  _104
REMARK   41  A    between atoms: _104  and  _105
REMARK   42  A    between atoms: _105  and  _106
REMARK   43  A    between atoms: _109  and  _111
REMARK   44  A    between atoms: _111  and  _112
REMARK   45  A    between atoms: _111  and  _114
REMARK   46  A    between atoms: _114  and  _115
REMARK   47  A    between atoms: _120  and  _122
REMARK   48  A    between atoms: _122  and  _123
REMARK   49  A    between atoms: _126  and  _128
REMARK   50  A    between atoms: _128  and  _129
REMARK   51  A    between atoms: _132  and  _134
REMARK   52  A    between atoms: _134  and  _135
REMARK   53  A    between atoms: _137  and  _139
REMARK   54  A    between atoms: _139  and  _140
REMARK   55  A    between atoms: _142  and  _144
REMARK   56  A    between atoms: _144  and  _145
REMARK   57  A    between atoms: _144  and  _147
REMARK   58  A    between atoms: _147  and  _148
REMARK   59  A    between atoms: _151  and  _153
REMARK   60  A    between atoms: _153  and  _154
REMARK   61  A    between atoms: _153  and  _156
REMARK   62  A    between atoms: _156  and  _157
REMARK   63  A    between atoms: _162  and  _163
REMARK   64  A    between atoms: _165  and  _167
REMARK   65  A    between atoms: _167  and  _168
REMARK   66  A    between atoms: _171  and  _173
REMARK   67  A    between atoms: _173  and  _174
REMARK   68  A    between atoms: _173  and  _176
REMARK   69  A    between atoms: _176  and  _177
REMARK   70  A    between atoms: _181  and  _182
REMARK   71  A    between atoms: _187  and  _189
REMARK   72  A    between atoms: _189  and  _190
REMARK   73  A    between atoms: _193  and  _194
REMARK   74  A    between atoms: _199  and  _201
REMARK   75  A    between atoms: _201  and  _202
REMARK   76  A    between atoms: _201  and  _204
REMARK   77  A    between atoms: _204  and  _205
REMARK   78  A    between atoms: _210  and  _212
REMARK   79  A    between atoms: _212  and  _213
REMARK   80  A    between atoms: _212  and  _215
REMARK   81  A    between atoms: _215  and  _216
REMARK   82  A    between atoms: _221  and  _222
REMARK   83  A    between atoms: _224  and  _226
REMARK   84  A    between atoms: _226  and  _227
REMARK   85  A    between atoms: _226  and  _229
REMARK   86  A    between atoms: _229  and  _230
REMARK   87  A    between atoms: _230  and  _231
REMARK   88  A    between atoms: _234  and  _236
REMARK   89  A    between atoms: _236  and  _237
REMARK   90  A    between atoms: _236  and  _239
REMARK   91  A    between atoms: _239  and  _240
REMARK   92  A    between atoms: _243  and  _245
REMARK   93  A    between atoms: _245  and  _246
REMARK   94  A    between atoms: _245  and  _248
REMARK   95  A    between atoms: _248  and  _249
REMARK   96  A    between atoms: _252  and  _254
REMARK   97  A    between atoms: _254  and  _255
REMARK   98  A    between atoms: _254  and  _257
REMARK   99  A    between atoms: _257  and  _258
REMARK  100  A    between atoms: _261  and  _263
REMARK  101  A    between atoms: _263  and  _264
REMARK  102  A    between atoms: _263  and  _266
REMARK  103  A    between atoms: _269  and  _271
REMARK  104  A    between atoms: _271  and  _272
REMARK  105  A    between atoms: _274  and  _276
REMARK  106  A    between atoms: _276  and  _277
REMARK  107  A    between atoms: _276  and  _279
REMARK  108  A    between atoms: _279  and  _280
REMARK  109  A    between atoms: _280  and  _281
REMARK  110  A    between atoms: _283  and  _285
REMARK  111  A    between atoms: _285  and  _286
REMARK  112  A    between atoms: _285  and  _288
REMARK  113  A    between atoms: _288  and  _289
REMARK  114  A    between atoms: _291  and  _293
REMARK  115  A    between atoms: _293  and  _294
REMARK  116  A    between atoms: _293  and  _296
REMARK  117  A    between atoms: _296  and  _297
REMARK  118  A    between atoms: _300  and  _302
REMARK  119  A    between atoms: _302  and  _303
REMARK  120  A    between atoms: _302  and  _305
REMARK  121  A    between atoms: _308  and  _310
REMARK  122  A    between atoms: _310  and  _311
REMARK  123  A    between atoms: _310  and  _313
REMARK  124  A    between atoms: _313  and  _314
REMARK  125  A    between atoms: _317  and  _319
REMARK  126  A    between atoms: _319  and  _320
REMARK  127  A    between atoms: _319  and  _322
REMARK  128  A    between atoms: _322  and  _323
REMARK  129  A    between atoms: _328  and  _330
REMARK  130  A    between atoms: _330  and  _331
REMARK  131  A    between atoms: _330  and  _333
REMARK  132  A    between atoms: _333  and  _334
REMARK  133  A    between atoms: _337  and  _339
REMARK  134  A    between atoms: _339  and  _340
REMARK  135  A    between atoms: _343  and  _345
REMARK  136  A    between atoms: _345  and  _346
REMARK  137  A    between atoms: _349  and  _351
REMARK  138  A    between atoms: _351  and  _352
REMARK  139  A    between atoms: _351  and  _354
REMARK  140  A    between atoms: _354  and  _355
REMARK  141  A    between atoms: _358  and  _360
REMARK  142  A    between atoms: _360  and  _361
REMARK  143  A    between atoms: _360  and  _363
REMARK  144  A    between atoms: _363  and  _364
REMARK  145  A    between atoms: _366  and  _368
REMARK  146  A    between atoms: _368  and  _369
REMARK  147  A    between atoms: _368  and  _371
REMARK  148  A    between atoms: _371  and  _372
REMARK  149  A    between atoms: _377  and  _379
REMARK  150  A    between atoms: _379  and  _380
REMARK  151  A    between atoms: _383  and  _385
REMARK  152  A    between atoms: _385  and  _386
REMARK  153  A    between atoms: _385  and  _388
REMARK  154  A    between atoms: _388  and  _389
REMARK  155  A    between atoms: _389  and  _390
REMARK  156  A    between atoms: _393  and  _395
REMARK  157  A    between atoms: _395  and  _396
REMARK  158  A    between atoms: _395  and  _398
REMARK  159  A    between atoms: _401  and  _403
REMARK  160  A    between atoms: _403  and  _404
REMARK  161  A    between atoms: _403  and  _406
REMARK  162  A    between atoms: _406  and  _407
REMARK  163  A    between atoms: _410  and  _412
REMARK  164  A    between atoms: _412  and  _413
REMARK  165  A    between atoms: _415  and  _417
REMARK  166  A    between atoms: _417  and  _418
REMARK  167  A    between atoms: _417  and  _420
REMARK  168  A    between atoms: _420  and  _421
REMARK  169  A    between atoms: _421  and  _422
REMARK  170  A    between atoms: _425  and  _427
REMARK  171  A    between atoms: _427  and  _428
REMARK  172  A    between atoms: _427  and  _430
REMARK  173  A    between atoms: _430  and  _431
REMARK  174  A    between atoms: _437  and  _439
REMARK  175  A    between atoms: _439  and  _440
REMARK  176  A    between atoms: _439  and  _442
REMARK  177  A    between atoms: _445  and  _447
REMARK  178  A    between atoms: _447  and  _448
REMARK  179  A    between atoms: _447  and  _450
REMARK  180  A    between atoms: _450  and  _451
REMARK                            x       y       z     vdW  Elec       q    Type
REMARK                         _______ _______ _______ _____ _____    ______ ____
ROOT
ATOM      1  CA  TYR A   1      60.677  25.330  35.586  0.00  0.00    +0.149 C 
ENDROOT
BRANCH   1   2
ATOM      2  C   TYR A   1      59.609  26.227  36.210  0.00  0.00    +0.239 C 
ATOM      3  O   TYR A   1      59.896  27.350  36.619  0.00  0.00    -0.274 OA
ATOM      4  N   ALA A   2      58.379  25.726  36.279  0.00  0.00    -0.298 N 
ATOM      5  H   ALA A   2      58.191  24.781  35.887  0.00  0.00    +0.150 HD
BRANCH   4   6
ATOM      6  CA  ALA A   2      57.288  26.475  36.893  0.00  0.00    +0.137 C 
ATOM      7  CB  ALA A   2      55.993  26.274  36.116  0.00  0.00    +0.030 C 
BRANCH   6   8
ATOM      8  C   ALA A   2      57.122  25.955  38.313  0.00  0.00    +0.227 C 
ATOM      9  O   ALA A   2      56.895  24.763  38.522  0.00  0.00    -0.286 OA
ENDBRANCH   6   8
ENDBRANCH   4   6
ENDBRANCH   1   2
BRANCH   1  10
ATOM     10  N   TYR A   1      61.379  25.992  34.487  0.00  0.00    -0.238 NA
ATOM     11  H   TYR A   1      62.194  26.599  34.710  0.00  0.00    +0.142 HD
ENDBRANCH   1  10
BRANCH   1  12
ATOM     12  CB  TYR A   1      61.698  24.937  36.659  0.00  0.00    +0.053 C 
BRANCH  12  13
ATOM     13  CG  TYR A   1      61.126  24.306  37.909  0.00  0.00    -0.020 A 
ATOM     14  CD2 TYR A   1      60.802  25.090  39.019  0.00  0.00    -0.001 A 
ATOM     15  CE2 TYR A   1      60.329  24.509  40.199  0.00  0.00    +0.036 A 
ATOM     16  CZ  TYR A   1      60.178  23.133  40.272  0.00  0.00    +0.134 A 
ATOM     17  CE1 TYR A   1      60.486  22.332  39.181  0.00  0.00    +0.036 A 
ATOM     18  CD1 TYR A   1      60.956  22.926  38.004  0.00  0.00    -0.001 A 
BRANCH  16  19
ATOM     19  OH  TYR A   1      59.744  22.560  41.443  0.00  0.00    -0.506 OA
ATOM     20  HH  TYR A   1      59.690  21.578  41.329  0.00  0.00    +0.292 HD
ENDBRANCH  16  19
ENDBRANCH  12  13
ENDBRANCH   1  12
TORSDOF 7
REMARK  Name = ../refined-set-2016/1n3i/1n3i_pocket.pdb
REMARK  180 active torsions:
REMARK  status: ('A' for Active; 'I' for Inactive)
REMARK    1  A    between atoms: _1  and  _3
REMARK    2  A    between atoms: _3  and  _4
REMARK    3  A    between atoms: _6  and  _8
REMARK    4  A    between atoms: _8  and  _9
REMARK    5  A    between atoms: _8  and  _11
REMARK    6  A    between atoms: _11  and  _12
REMARK    7  A    between atoms: _14  and  _16
REMARK    8  A    between atoms: _16  and  _17
REMARK    9  A    between atoms: _19  and  _21
REMARK   10  A    between atoms: _21  and  _22
REMARK   11  A    between atoms: _25  and  _27
REMARK   12  A    between atoms: _27  and  _28
REMARK   13  A    between atoms: _31  and  _33
REMARK   14  A    between atoms: _33  and  _34
REMARK   15  A    between atoms: _33  and  _36
REMARK   16  A    between atoms: _36  and  _37
REMARK   17  A    between atoms: _42  and  _44
REMARK   18  A    between atoms: _44  and  _45
REMARK   19  A    between atoms: _44  and  _47
REMARK   20  A    between atoms: _47  and  _48
REMARK   21  A    between atoms: _48  and  _49
REMARK   22  A    between atoms: _49  and  _50
REMARK   23  A    between atoms: _59  and  _61
REMARK   24  A    between atoms: _61  and  _62
REMARK   25  A    between atoms: _61  and  _64
REMARK   26  A    between atoms: _64  and  _65
REMARK   27  A    between atoms: _68  and  _70
REMARK   28  A    between atoms: _70  and  _71
REMARK   29  A    between atoms: _70  and  _73
REMARK   30  A    between atoms: _73  and  _74
REMARK   31  A    between atoms: _79  and  _81
REMARK   32  A    between atoms: _81  and  _82
REMARK   33  A    between atoms: _85  and  _87
REMARK   34  A    between atoms: _87  and  _88
REMARK   35  A    between atoms: _87  and  _90
REMARK   36  A    between atoms: _90  and  _91
REMARK   37  A    between atoms: _96  and  _97
REMARK   38  A    between atoms: _99  and  _101
REMARK   39  A    between atoms: _101  and  _102
REMARK   40  A    between atoms: _101  and  _104
REMARK   41  A    between atoms: _104  and  _105
REMARK   42  A    between atoms: _105  and  _106
REMARK   43  A    between atoms: _109  and  _111
REMARK   44  A    between atoms: _111  and  _112
REMARK   45  A    between atoms: _111  and  _114
REMARK   46  A    between atoms: _114  and  _115
REMARK   47  A    between atoms: _120  and  _122
REMARK   48  A    between atoms: _122  and  _123
REMARK   49  A    between atoms: _126  and  _128
REMARK   50  A    between atoms: _128  and  _129
REMARK   51  A    between atoms: _132  and  _134
REMARK   52  A    between atoms: _134  and  _135
REMARK   53  A    between atoms: _137  and  _139
REMARK   54  A    between atoms: _139  and  _140
REMARK   55  A    between atoms: _142  and  _144
REMARK   56  A    between atoms: _144  and  _145
REMARK   57  A    between atoms: _144  and  _147
REMARK   58  A    between atoms: _147  and  _148
REMARK   59  A    between atoms: _151  and  _153
REMARK   60  A    between atoms: _153  and  _154
REMARK   61  A    between atoms: _153  and  _156
REMARK   62  A    between atoms: _156  and  _157
REMARK   63  A    between atoms: _162  and  _163
REMARK   64  A    between atoms: _165  and  _167
REMARK   65  A    between atoms: _167  and  _168
REMARK   66  A    between atoms: _171  and  _173
REMARK   67  A    between atoms: _173  and  _174
REMARK   68  A    between atoms: _173  and  _176
REMARK   69  A    between atoms: _176  and  _177
REMARK   70  A    between atoms: _181  and  _182
REMARK   71  A    between atoms: _187  and  _189
REMARK   72  A    between atoms: _189  and  _190
REMARK   73  A    between atoms: _193  and  _194
REMARK   74  A    between atoms: _199  and  _201
REMARK   75  A    between atoms: _201  and  _202
REMARK   76  A    between atoms: _201  and  _204
REMARK   77  A    between atoms: _204  and  _205
REMARK   78  A    between atoms: _210  and  _212
REMARK   79  A    between atoms: _212  and  _213
REMARK   80  A    between atoms: _212  and  _215
REMARK   81  A    between atoms: _215  and  _216
REMARK   82  A    between atoms: _221  and  _222
REMARK   83  A    between atoms: _224  and  _226
REMARK   84  A    between atoms: _226  and  _227
REMARK   85  A    between atoms: _226  and  _229
REMARK   86  A    between atoms: _229  and  _230
REMARK   87  A    between atoms: _230  and  _231
REMARK   88  A    between atoms: _234  and  _236
REMARK   89  A    between atoms: _236  and  _237
REMARK   90  A    between atoms: _236  and  _239
REMARK   91  A    between atoms: _239  and  _240
REMARK   92  A    between atoms: _243  and  _245
REMARK   93  A    between atoms: _245  and  _246
REMARK   94  A    between atoms: _245  and  _248
REMARK   95  A    between atoms: _248  and  _249
REMARK   96  A    between atoms: _252  and  _254
REMARK   97  A    between atoms: _254  and  _255
REMARK   98  A    between atoms: _254  and  _257
REMARK   99  A    between atoms: _257  and  _258
REMARK  100  A    between atoms: _261  and  _263
REMARK  101  A    between atoms: _263  and  _264
REMARK  102  A    between atoms: _263  and  _266
REMARK  103  A    between atoms: _269  and  _271
REMARK  104  A    between atoms: _271  and  _272
REMARK  105  A    between atoms: _274  and  _276
REMARK  106  A    between atoms: _276  and  _277
REMARK  107  A    between atoms: _276  and  _279
REMARK  108  A    between atoms: _279  and  _280
REMARK  109  A    between atoms: _280  and  _281
REMARK  110  A    between atoms: _283  and  _285
REMARK  111  A    between atoms: _285  and  _286
REMARK  112  A    between atoms: _285  and  _288
REMARK  113  A    between atoms: _288  and  _289
REMARK  114  A    between atoms: _291  and  _293
REMARK  115  A    between atoms: _293  and  _294
REMARK  116  A    between atoms: _293  and  _296
REMARK  117  A    between atoms: _296  and  _297
REMARK  118  A    between atoms: _300  and  _302
REMARK  119  A    between atoms: _302  and  _303
REMARK  120  A    between atoms: _302  and  _305
REMARK  121  A    between atoms: _308  and  _310
REMARK  122  A    between atoms: _310  and  _311
REMARK  123  A    between atoms: _310  and  _313
REMARK  124  A    between atoms: _313  and  _314
REMARK  125  A    between atoms: _317  and  _319
REMARK  126  A    between atoms: _319  and  _320
REMARK  127  A    between atoms: _319  and  _322
REMARK  128  A    between atoms: _322  and  _323
REMARK  129  A    between atoms: _328  and  _330
REMARK  130  A    between atoms: _330  and  _331
REMARK  131  A    between atoms: _330  and  _333
REMARK  132  A    between atoms: _333  and  _334
REMARK  133  A    between atoms: _337  and  _339
REMARK  134  A    between atoms: _339  and  _340
REMARK  135  A    between atoms: _343  and  _345
REMARK  136  A    between atoms: _345  and  _346
REMARK  137  A    between atoms: _349  and  _351
REMARK  138  A    between atoms: _351  and  _352
REMARK  139  A    between atoms: _351  and  _354
REMARK  140  A    between atoms: _354  and  _355
REMARK  141  A    between atoms: _358  and  _360
REMARK  142  A    between atoms: _360  and  _361
REMARK  143  A    between atoms: _360  and  _363
REMARK  144  A    between atoms: _363  and  _364
REMARK  145  A    between atoms: _366  and  _368
REMARK  146  A    between atoms: _368  and  _369
REMARK  147  A    between atoms: _368  and  _371
REMARK  148  A    between atoms: _371  and  _372
REMARK  149  A    between atoms: _377  and  _379
REMARK  150  A    between atoms: _379  and  _380
REMARK  151  A    between atoms: _383  and  _385
REMARK  152  A    between atoms: _385  and  _386
REMARK  153  A    between atoms: _385  and  _388
REMARK  154  A    between atoms: _388  and  _389
REMARK  155  A    between atoms: _389  and  _390
REMARK  156  A    between atoms: _393  and  _395
REMARK  157  A    between atoms: _395  and  _396
REMARK  158  A    between atoms: _395  and  _398
REMARK  159  A    between atoms: _401  and  _403
REMARK  160  A    between atoms: _403  and  _404
REMARK  161  A    between atoms: _403  and  _406
REMARK  162  A    between atoms: _406  and  _407
REMARK  163  A    between atoms: _410  and  _412
REMARK  164  A    between atoms: _412  and  _413
REMARK  165  A    between atoms: _415  and  _417
REMARK  166  A    between atoms: _417  and  _418
REMARK  167  A    between atoms: _417  and  _420
REMARK  168  A    between atoms: _420  and  _421
REMARK  169  A    between atoms: _421  and  _422
REMARK  170  A    between atoms: _425  and  _427
REMARK  171  A    between atoms: _427  and  _428
REMARK  172  A    between atoms: _427  and  _430
REMARK  173  A    between atoms: _430  and  _431
REMARK  174  A    between atoms: _437  and  _439
REMARK  175  A    between atoms: _439  and  _440
REMARK  176  A    between atoms: _439  and  _442
REMARK  177  A    between atoms: _445  and  _447
REMARK  178  A    between atoms: _447  and  _448
REMARK  179  A    between atoms: _447  and  _450
REMARK  180  A    between atoms: _450  and  _451
REMARK                            x       y       z     vdW  Elec       q    Type
REMARK                         _______ _______ _______ _____ _____    ______ ____
ROOT
ATOM      1  CA  HIS A   5      47.690  18.771  44.497  0.00  0.00    +0.155 C 
ENDROOT
BRANCH   1   3
ATOM      2  C   PRO A   4      49.642  18.935  45.900  0.00  0.00    +0.241 C 
ATOM      3  N   HIS A   5      48.475  19.446  45.521  0.00  0.00    -0.297 N 
ATOM      4  H   HIS A   5      48.124  20.324  45.954  0.00  0.00    +0.150 HD
ATOM      5  O   PRO A   4      50.083  17.879  45.441  0.00  0.00    -0.273 OA
BRANCH   2  11
ATOM      6  C   GLY A   3      50.070  22.171  46.731  0.00  0.00    +0.246 C 
ATOM      7  N   PRO A   4      49.862  20.992  47.343  0.00  0.00    -0.272 N 
ATOM      8  CD  PRO A   4      49.091  20.869  48.595  0.00  0.00    +0.094 C 
ATOM      9  CG  PRO A   4      49.174  19.374  48.910  0.00  0.00    +0.024 C 
ATOM     10  CB  PRO A   4      50.478  18.956  48.284  0.00  0.00    +0.031 C 
ATOM     11  CA  PRO A   4      50.428  19.698  46.959  0.00  0.00    +0.152 C 
ATOM     12  O   GLY A   3      49.600  23.218  47.175  0.00  0.00    -0.273 OA
BRANCH   6  13
ATOM     13  CA  GLY A   3      50.967  22.224  45.502  0.00  0.00    +0.176 C 
BRANCH  13  16
ATOM     14  C   PRO A   2      52.099  24.299  45.955  0.00  0.00    +0.241 C 
ATOM     15  O   PRO A   2      52.747  23.773  46.858  0.00  0.00    -0.273 OA
ATOM     16  N   GLY A   3      51.227  23.624  45.216  0.00  0.00    -0.295 N 
ATOM     17  H   GLY A   3      50.731  24.097  44.434  0.00  0.00    +0.150 HD
BRANCH  14  20
ATOM     18  C   LEU A   1      53.523  25.650  43.513  0.00  0.00    +0.241 C 
ATOM     19  N   PRO A   2      52.445  26.061  44.195  0.00  0.00    -0.272 N 
ATOM     20  CA  PRO A   2      52.280  25.782  45.623  0.00  0.00    +0.152 C 
ATOM     21  CB  PRO A   2      51.042  26.600  45.990  0.00  0.00    +0.031 C 
ATOM     22  CG  PRO A   2      51.083  27.737  45.025  0.00  0.00    +0.024 C 
ATOM     23  CD  PRO A   2      51.442  27.040  43.739  0.00  0.00    +0.094 C 
ATOM     24  O   LEU A   1      54.439  25.030  44.053  0.00  0.00    -0.273 OA
BRANCH  18  25
ATOM     25  CA  LEU A   1      53.583  26.001  42.033  0.00  0.00    +0.145 C 
BRANCH  25  26
ATOM     26  N   LEU A   1      54.936  25.792  41.523  0.00  0.00    -0.238 NA
ATOM     27  H   LEU A   1      55.296  24.821  41.430  0.00  0.00    +0.142 HD
ENDBRANCH  25  26
BRANCH  25  28
ATOM     28  CB  LEU A   1      52.570  25.147  41.260  0.00  0.00    +0.026 C 
BRANCH  28  29
ATOM     29  CG  LEU A   1      52.157  25.671  39.878  0.00  0.00    +0.002 C 
ATOM     30  CD2 LEU A   1      51.105  24.749  39.281  0.00  0.00    +0.000 C 
ATOM     31  CD1 LEU A   1      53.373  25.757  38.964  0.00  0.00    +0.000 C 
ENDBRANCH  28  29
ENDBRANCH  25  28
ENDBRANCH  18  25
ENDBRANCH  14  20
ENDBRANCH  13  16
ENDBRANCH   6  13
ENDBRANCH   2  11
ENDBRANCH   1   3
BRANCH   1  32
ATOM     32  C   HIS A   5      48.408  18.925  43.165  0.00  0.00    +0.241 C 
ATOM     33  O   HIS A   5      49.087  19.928  42.931  0.00  0.00    -0.273 OA
ATOM     34  N   TYR A   6      48.279  17.922  42.301  0.00  0.00    -0.297 N 
ATOM     35  H   TYR A   6      47.734  17.079  42.572  0.00  0.00    +0.150 HD
BRANCH  34  36
ATOM     36  CA  TYR A   6      48.891  17.988  40.980  0.00  0.00    +0.153 C 
BRANCH  36  37
ATOM     37  C   TYR A   6      47.987  18.903  40.154  0.00  0.00    +0.241 C 
ATOM     38  O   TYR A   6      46.863  19.209  40.566  0.00  0.00    -0.273 OA
ATOM     39  N   GLU A   7      48.466  19.328  38.990  0.00  0.00    -0.298 N 
ATOM     40  H   GLU A   7      49.403  19.002  38.678  0.00  0.00    +0.150 HD
BRANCH  39  41
ATOM     41  CA  GLU A   7      47.710  20.241  38.137  0.00  0.00    +0.137 C 
BRANCH  41  42
ATOM     42  C   GLU A   7      46.609  19.589  37.310  0.00  0.00    +0.227 C 
ATOM     43  O   GLU A   7      46.648  18.390  37.033  0.00  0.00    -0.286 OA
ENDBRANCH  41  42
BRANCH  41  44
ATOM     44  CB  GLU A   7      48.658  20.969  37.174  0.00  0.00    +0.039 C 
BRANCH  44  45
ATOM     45  CG  GLU A   7      49.837  21.691  37.827  0.00  0.00    +0.116 C 
BRANCH  45  46
ATOM     46  CD  GLU A   7      50.833  20.743  38.471  0.00  0.00    +0.365 C 
ATOM     47  OE2 GLU A   7      51.297  21.039  39.597  0.00  0.00    -0.246 OA
ATOM     48  OE1 GLU A   7      51.160  19.712  37.845  0.00  0.00    -0.246 OA
ENDBRANCH  45  46
ENDBRANCH  44  45
ENDBRANCH  41  44
ENDBRANCH  39  41
ENDBRANCH  36  37
BRANCH  36  49
ATOM     49  CB  TYR A   6      48.959  16.594  40.348  0.00  0.00    +0.055 C 
BRANCH  49  50
ATOM     50  CG  TYR A   6      49.893  15.638  41.057  0.00  0.00    -0.020 A 
ATOM     51  CD2 TYR A   6      49.412  14.450  41.607  0.00  0.00    -0.001 A 
ATOM     52  CE2 TYR A   6      50.269  13.547  42.238  0.00  0.00    +0.036 A 
ATOM     53  CZ  TYR A   6      51.621  13.830  42.328  0.00  0.00    +0.134 A 
ATOM     54  CE1 TYR A   6      52.129  15.006  41.794  0.00  0.00    +0.036 A 
ATOM     55  CD1 TYR A   6      51.262  15.905  41.159  0.00  0.00    -0.001 A 
BRANCH  53  56
ATOM     56  OH  TYR A   6      52.453  12.929  42.950  0.00  0.00    -0.506 OA
ATOM     57  HH  TYR A   6      52.894  13.366  43.721  0.00  0.00    +0.292 HD
ENDBRANCH  53  56
ENDBRANCH  49  50
ENDBRANCH  36  49
ENDBRANCH  34  36
ENDBRANCH   1  32
BRANCH   1  58
ATOM     58  CB  HIS A   5      46.285  19.375  44.384  0.00  0.00    +0.076 C 
BRANCH  58  59
ATOM     59  CG  HIS A   5      46.280  20.832  44.037  0.00  0.00    +0.082 A 
ATOM     60  ND1 HIS A   5      46.326  21.825  44.993  0.00  0.00    -0.227 NA
ATOM     61  CE1 HIS A   5      46.345  23.005  44.398  0.00  0.00    +0.199 A 
ATOM     62  NE2 HIS A   5      46.314  22.814  43.091  0.00  0.00    -0.221 NA
ATOM     63  CD2 HIS A   5      46.272  21.463  42.839  0.00  0.00    +0.115 A 
ENDBRANCH  58  59
ENDBRANCH   1  58
TORSDOF 22
REMARK  Name = ../refined-set-2016/1n3i/1n3i_pocket.pdb
REMARK  180 active torsions:
REMARK  status: ('A' for Active; 'I' for Inactive)
REMARK    1  A    between atoms: _1  and  _3
REMARK    2  A    between atoms: _3  and  _4
REMARK    3  A    between atoms: _6  and  _8
REMARK    4  A    between atoms: _8  and  _9
REMARK    5  A    between atoms: _8  and  _11
REMARK    6  A    between atoms: _11  and  _12
REMARK    7  A    between atoms: _14  and  _16
REMARK    8  A    between atoms: _16  and  _17
REMARK    9  A    between atoms: _19  and  _21
REMARK   10  A    between atoms: _21  and  _22
REMARK   11  A    between atoms: _25  and  _27
REMARK   12  A    between atoms: _27  and  _28
REMARK   13  A    between atoms: _31  and  _33
REMARK   14  A    between atoms: _33  and  _34
REMARK   15  A    between atoms: _33  and  _36
REMARK   16  A    between atoms: _36  and  _37
REMARK   17  A    between atoms: _42  and  _44
REMARK   18  A    between atoms: _44  and  _45
REMARK   19  A    between atoms: _44  and  _47
REMARK   20  A    between atoms: _47  and  _48
REMARK   21  A    between atoms: _48  and  _49
REMARK   22  A    between atoms: _49  and  _50
REMARK   23  A    between atoms: _59  and  _61
REMARK   24  A    between atoms: _61  and  _62
REMARK   25  A    between atoms: _61  and  _64
REMARK   26  A    between atoms: _64  and  _65
REMARK   27  A    between atoms: _68  and  _70
REMARK   28  A    between atoms: _70  and  _71
REMARK   29  A    between atoms: _70  and  _73
REMARK   30  A    between atoms: _73  and  _74
REMARK   31  A    between atoms: _79  and  _81
REMARK   32  A    between atoms: _81  and  _82
REMARK   33  A    between atoms: _85  and  _87
REMARK   34  A    between atoms: _87  and  _88
REMARK   35  A    between atoms: _87  and  _90
REMARK   36  A    between atoms: _90  and  _91
REMARK   37  A    between atoms: _96  and  _97
REMARK   38  A    between atoms: _99  and  _101
REMARK   39  A    between atoms: _101  and  _102
REMARK   40  A    between atoms: _101  and  _104
REMARK   41  A    between atoms: _104  and  _105
REMARK   42  A    between atoms: _105  and  _106
REMARK   43  A    between atoms: _109  and  _111
REMARK   44  A    between atoms: _111  and  _112
REMARK   45  A    between atoms: _111  and  _114
REMARK   46  A    between atoms: _114  and  _115
REMARK   47  A    between atoms: _120  and  _122
REMARK   48  A    between atoms: _122  and  _123
REMARK   49  A    between atoms: _126  and  _128
REMARK   50  A    between atoms: _128  and  _129
REMARK   51  A    between atoms: _132  and  _134
REMARK   52  A    between atoms: _134  and  _135
REMARK   53  A    between atoms: _137  and  _139
REMARK   54  A    between atoms: _139  and  _140
REMARK   55  A    between atoms: _142  and  _144
REMARK   56  A    between atoms: _144  and  _145
REMARK   57  A    between atoms: _144  and  _147
REMARK   58  A    between atoms: _147  and  _148
REMARK   59  A    between atoms: _151  and  _153
REMARK   60  A    between atoms: _153  and  _154
REMARK   61  A    between atoms: _153  and  _156
REMARK   62  A    between atoms: _156  and  _157
REMARK   63  A    between atoms: _162  and  _163
REMARK   64  A    between atoms: _165  and  _167
REMARK   65  A    between atoms: _167  and  _168
REMARK   66  A    between atoms: _171  and  _173
REMARK   67  A    between atoms: _173  and  _174
REMARK   68  A    between atoms: _173  and  _176
REMARK   69  A    between atoms: _176  and  _177
REMARK   70  A    between atoms: _181  and  _182
REMARK   71  A    between atoms: _187  and  _189
REMARK   72  A    between atoms: _189  and  _190
REMARK   73  A    between atoms: _193  and  _194
REMARK   74  A    between atoms: _199  and  _201
REMARK   75  A    between atoms: _201  and  _202
REMARK   76  A    between atoms: _201  and  _204
REMARK   77  A    between atoms: _204  and  _205
REMARK   78  A    between atoms: _210  and  _212
REMARK   79  A    between atoms: _212  and  _213
REMARK   80  A    between atoms: _212  and  _215
REMARK   81  A    between atoms: _215  and  _216
REMARK   82  A    between atoms: _221  and  _222
REMARK   83  A    between atoms: _224  and  _226
REMARK   84  A    between atoms: _226  and  _227
REMARK   85  A    between atoms: _226  and  _229
REMARK   86  A    between atoms: _229  and  _230
REMARK   87  A    between atoms: _230  and  _231
REMARK   88  A    between atoms: _234  and  _236
REMARK   89  A    between atoms: _236  and  _237
REMARK   90  A    between atoms: _236  and  _239
REMARK   91  A    between atoms: _239  and  _240
REMARK   92  A    between atoms: _243  and  _245
REMARK   93  A    between atoms: _245  and  _246
REMARK   94  A    between atoms: _245  and  _248
REMARK   95  A    between atoms: _248  and  _249
REMARK   96  A    between atoms: _252  and  _254
REMARK   97  A    between atoms: _254  and  _255
REMARK   98  A    between atoms: _254  and  _257
REMARK   99  A    between atoms: _257  and  _258
REMARK  100  A    between atoms: _261  and  _263
REMARK  101  A    between atoms: _263  and  _264
REMARK  102  A    between atoms: _263  and  _266
REMARK  103  A    between atoms: _269  and  _271
REMARK  104  A    between atoms: _271  and  _272
REMARK  105  A    between atoms: _274  and  _276
REMARK  106  A    between atoms: _276  and  _277
REMARK  107  A    between atoms: _276  and  _279
REMARK  108  A    between atoms: _279  and  _280
REMARK  109  A    between atoms: _280  and  _281
REMARK  110  A    between atoms: _283  and  _285
REMARK  111  A    between atoms: _285  and  _286
REMARK  112  A    between atoms: _285  and  _288
REMARK  113  A    between atoms: _288  and  _289
REMARK  114  A    between atoms: _291  and  _293
REMARK  115  A    between atoms: _293  and  _294
REMARK  116  A    between atoms: _293  and  _296
REMARK  117  A    between atoms: _296  and  _297
REMARK  118  A    between atoms: _300  and  _302
REMARK  119  A    between atoms: _302  and  _303
REMARK  120  A    between atoms: _302  and  _305
REMARK  121  A    between atoms: _308  and  _310
REMARK  122  A    between atoms: _310  and  _311
REMARK  123  A    between atoms: _310  and  _313
REMARK  124  A    between atoms: _313  and  _314
REMARK  125  A    between atoms: _317  and  _319
REMARK  126  A    between atoms: _319  and  _320
REMARK  127  A    between atoms: _319  and  _322
REMARK  128  A    between atoms: _322  and  _323
REMARK  129  A    between atoms: _328  and  _330
REMARK  130  A    between atoms: _330  and  _331
REMARK  131  A    between atoms: _330  and  _333
REMARK  132  A    between atoms: _333  and  _334
REMARK  133  A    between atoms: _337  and  _339
REMARK  134  A    between atoms: _339  and  _340
REMARK  135  A    between atoms: _343  and  _345
REMARK  136  A    between atoms: _345  and  _346
REMARK  137  A    between atoms: _349  and  _351
REMARK  138  A    between atoms: _351  and  _352
REMARK  139  A    between atoms: _351  and  _354
REMARK  140  A    between atoms: _354  and  _355
REMARK  141  A    between atoms: _358  and  _360
REMARK  142  A    between atoms: _360  and  _361
REMARK  143  A    between atoms: _360  and  _363
REMARK  144  A    between atoms: _363  and  _364
REMARK  145  A    between atoms: _366  and  _368
REMARK  146  A    between atoms: _368  and  _369
REMARK  147  A    between atoms: _368  and  _371
REMARK  148  A    between atoms: _371  and  _372
REMARK  149  A    between atoms: _377  and  _379
REMARK  150  A    between atoms: _379  and  _380
REMARK  151  A    between atoms: _383  and  _385
REMARK  152  A    between atoms: _385  and  _386
REMARK  153  A    between atoms: _385  and  _388
REMARK  154  A    between atoms: _388  and  _389
REMARK  155  A    between atoms: _389  and  _390
REMARK  156  A    between atoms: _393  and  _395
REMARK  157  A    between atoms: _395  and  _396
REMARK  158  A    between atoms: _395  and  _398
REMARK  159  A    between atoms: _401  and  _403
REMARK  160  A    between atoms: _403  and  _404
REMARK  161  A    between atoms: _403  and  _406
REMARK  162  A    between atoms: _406  and  _407
REMARK  163  A    between atoms: _410  and  _412
REMARK  164  A    between atoms: _412  and  _413
REMARK  165  A    between atoms: _415  and  _417
REMARK  166  A    between atoms: _417  and  _418
REMARK  167  A    between atoms: _417  and  _420
REMARK  168  A    between atoms: _420  and  _421
REMARK  169  A    between atoms: _421  and  _422
REMARK  170  A    between atoms: _425  and  _427
REMARK  171  A    between atoms: _427  and  _428
REMARK  172  A    between atoms: _427  and  _430
REMARK  173  A    between atoms: _430  and  _431
REMARK  174  A    between atoms: _437  and  _439
REMARK  175  A    between atoms: _439  and  _440
REMARK  176  A    between atoms: _439  and  _442
REMARK  177  A    between atoms: _445  and  _447
REMARK  178  A    between atoms: _447  and  _448
REMARK  179  A    between atoms: _447  and  _450
REMARK  180  A    between atoms: _450  and  _451
REMARK                            x       y       z     vdW  Elec       q    Type
REMARK                         _______ _______ _______ _____ _____    ______ ____
ROOT
ATOM      1  CA  ILE A   1      49.000  22.426  32.277  0.00  0.00    +0.133 C 
ENDROOT
BRANCH   1   2
ATOM      2  N   ILE A   1      47.794  22.794  33.009  0.00  0.00    -0.239 NA
ATOM      3  H   ILE A   1      47.063  22.077  33.189  0.00  0.00    +0.142 HD
ENDBRANCH   1   2
BRANCH   1   4
ATOM      4  CB  ILE A   1      49.065  20.897  32.036  0.00  0.00    +0.023 C 
ATOM      5  CG2 ILE A   1      50.148  20.563  31.023  0.00  0.00    +0.002 C 
BRANCH   4   6
ATOM      6  CG1 ILE A   1      49.336  20.183  33.365  0.00  0.00    +0.002 C 
ATOM      7  CD1 ILE A   1      50.589  20.668  34.084  0.00  0.00    +0.000 C 
ENDBRANCH   4   6
ENDBRANCH   1   4
BRANCH   1   8
ATOM      8  C   ILE A   1      49.047  23.170  30.941  0.00  0.00    +0.224 C 
ATOM      9  O   ILE A   1      50.104  23.644  30.529  0.00  0.00    -0.287 OA
ENDBRANCH   1   8
TORSDOF 4
REMARK  Name = ../refined-set-2016/1n3i/1n3i_pocket.pdb
REMARK  180 active torsions:
REMARK  status: ('A' for Active; 'I' for Inactive)
REMARK    1  A    between atoms: _1  and  _3
REMARK    2  A    between atoms: _3  and  _4
REMARK    3  A    between atoms: _6  and  _8
REMARK    4  A    between atoms: _8  and  _9
REMARK    5  A    between atoms: _8  and  _11
REMARK    6  A    between atoms: _11  and  _12
REMARK    7  A    between atoms: _14  and  _16
REMARK    8  A    between atoms: _16  and  _17
REMARK    9  A    between atoms: _19  and  _21
REMARK   10  A    between atoms: _21  and  _22
REMARK   11  A    between atoms: _25  and  _27
REMARK   12  A    between atoms: _27  and  _28
REMARK   13  A    between atoms: _31  and  _33
REMARK   14  A    between atoms: _33  and  _34
REMARK   15  A    between atoms: _33  and  _36
REMARK   16  A    between atoms: _36  and  _37
REMARK   17  A    between atoms: _42  and  _44
REMARK   18  A    between atoms: _44  and  _45
REMARK   19  A    between atoms: _44  and  _47
REMARK   20  A    between atoms: _47  and  _48
REMARK   21  A    between atoms: _48  and  _49
REMARK   22  A    between atoms: _49  and  _50
REMARK   23  A    between atoms: _59  and  _61
REMARK   24  A    between atoms: _61  and  _62
REMARK   25  A    between atoms: _61  and  _64
REMARK   26  A    between atoms: _64  and  _65
REMARK   27  A    between atoms: _68  and  _70
REMARK   28  A    between atoms: _70  and  _71
REMARK   29  A    between atoms: _70  and  _73
REMARK   30  A    between atoms: _73  and  _74
REMARK   31  A    between atoms: _79  and  _81
REMARK   32  A    between atoms: _81  and  _82
REMARK   33  A    between atoms: _85  and  _87
REMARK   34  A    between atoms: _87  and  _88
REMARK   35  A    between atoms: _87  and  _90
REMARK   36  A    between atoms: _90  and  _91
REMARK   37  A    between atoms: _96  and  _97
REMARK   38  A    between atoms: _99  and  _101
REMARK   39  A    between atoms: _101  and  _102
REMARK   40  A    between atoms: _101  and  _104
REMARK   41  A    between atoms: _104  and  _105
REMARK   42  A    between atoms: _105  and  _106
REMARK   43  A    between atoms: _109  and  _111
REMARK   44  A    between atoms: _111  and  _112
REMARK   45  A    between atoms: _111  and  _114
REMARK   46  A    between atoms: _114  and  _115
REMARK   47  A    between atoms: _120  and  _122
REMARK   48  A    between atoms: _122  and  _123
REMARK   49  A    between atoms: _126  and  _128
REMARK   50  A    between atoms: _128  and  _129
REMARK   51  A    between atoms: _132  and  _134
REMARK   52  A    between atoms: _134  and  _135
REMARK   53  A    between atoms: _137  and  _139
REMARK   54  A    between atoms: _139  and  _140
REMARK   55  A    between atoms: _142  and  _144
REMARK   56  A    between atoms: _144  and  _145
REMARK   57  A    between atoms: _144  and  _147
REMARK   58  A    between atoms: _147  and  _148
REMARK   59  A    between atoms: _151  and  _153
REMARK   60  A    between atoms: _153  and  _154
REMARK   61  A    between atoms: _153  and  _156
REMARK   62  A    between atoms: _156  and  _157
REMARK   63  A    between atoms: _162  and  _163
REMARK   64  A    between atoms: _165  and  _167
REMARK   65  A    between atoms: _167  and  _168
REMARK   66  A    between atoms: _171  and  _173
REMARK   67  A    between atoms: _173  and  _174
REMARK   68  A    between atoms: _173  and  _176
REMARK   69  A    between atoms: _176  and  _177
REMARK   70  A    between atoms: _181  and  _182
REMARK   71  A    between atoms: _187  and  _189
REMARK   72  A    between atoms: _189  and  _190
REMARK   73  A    between atoms: _193  and  _194
REMARK   74  A    between atoms: _199  and  _201
REMARK   75  A    between atoms: _201  and  _202
REMARK   76  A    between atoms: _201  and  _204
REMARK   77  A    between atoms: _204  and  _205
REMARK   78  A    between atoms: _210  and  _212
REMARK   79  A    between atoms: _212  and  _213
REMARK   80  A    between atoms: _212  and  _215
REMARK   81  A    between atoms: _215  and  _216
REMARK   82  A    between atoms: _221  and  _222
REMARK   83  A    between atoms: _224  and  _226
REMARK   84  A    between atoms: _226  and  _227
REMARK   85  A    between atoms: _226  and  _229
REMARK   86  A    between atoms: _229  and  _230
REMARK   87  A    between atoms: _230  and  _231
REMARK   88  A    between atoms: _234  and  _236
REMARK   89  A    between atoms: _236  and  _237
REMARK   90  A    between atoms: _236  and  _239
REMARK   91  A    between atoms: _239  and  _240
REMARK   92  A    between atoms: _243  and  _245
REMARK   93  A    between atoms: _245  and  _246
REMARK   94  A    between atoms: _245  and  _248
REMARK   95  A    between atoms: _248  and  _249
REMARK   96  A    between atoms: _252  and  _254
REMARK   97  A    between atoms: _254  and  _255
REMARK   98  A    between atoms: _254  and  _257
REMARK   99  A    between atoms: _257  and  _258
REMARK  100  A    between atoms: _261  and  _263
REMARK  101  A    between atoms: _263  and  _264
REMARK  102  A    between atoms: _263  and  _266
REMARK  103  A    between atoms: _269  and  _271
REMARK  104  A    between atoms: _271  and  _272
REMARK  105  A    between atoms: _274  and  _276
REMARK  106  A    between atoms: _276  and  _277
REMARK  107  A    between atoms: _276  and  _279
REMARK  108  A    between atoms: _279  and  _280
REMARK  109  A    between atoms: _280  and  _281
REMARK  110  A    between atoms: _283  and  _285
REMARK  111  A    between atoms: _285  and  _286
REMARK  112  A    between atoms: _285  and  _288
REMARK  113  A    between atoms: _288  and  _289
REMARK  114  A    between atoms: _291  and  _293
REMARK  115  A    between atoms: _293  and  _294
REMARK  116  A    between atoms: _293  and  _296
REMARK  117  A    between atoms: _296  and  _297
REMARK  118  A    between atoms: _300  and  _302
REMARK  119  A    between atoms: _302  and  _303
REMARK  120  A    between atoms: _302  and  _305
REMARK  121  A    between atoms: _308  and  _310
REMARK  122  A    between atoms: _310  and  _311
REMARK  123  A    between atoms: _310  and  _313
REMARK  124  A    between atoms: _313  and  _314
REMARK  125  A    between atoms: _317  and  _319
REMARK  126  A    between atoms: _319  and  _320
REMARK  127  A    between atoms: _319  and  _322
REMARK  128  A    between atoms: _322  and  _323
REMARK  129  A    between atoms: _328  and  _330
REMARK  130  A    between atoms: _330  and  _331
REMARK  131  A    between atoms: _330  and  _333
REMARK  132  A    between atoms: _333  and  _334
REMARK  133  A    between atoms: _337  and  _339
REMARK  134  A    between atoms: _339  and  _340
REMARK  135  A    between atoms: _343  and  _345
REMARK  136  A    between atoms: _345  and  _346
REMARK  137  A    between atoms: _349  and  _351
REMARK  138  A    between atoms: _351  and  _352
REMARK  139  A    between atoms: _351  and  _354
REMARK  140  A    between atoms: _354  and  _355
REMARK  141  A    between atoms: _358  and  _360
REMARK  142  A    between atoms: _360  and  _361
REMARK  143  A    between atoms: _360  and  _363
REMARK  144  A    between atoms: _363  and  _364
REMARK  145  A    between atoms: _366  and  _368
REMARK  146  A    between atoms: _368  and  _369
REMARK  147  A    between atoms: _368  and  _371
REMARK  148  A    between atoms: _371  and  _372
REMARK  149  A    between atoms: _377  and  _379
REMARK  150  A    between atoms: _379  and  _380
REMARK  151  A    between atoms: _383  and  _385
REMARK  152  A    between atoms: _385  and  _386
REMARK  153  A    between atoms: _385  and  _388
REMARK  154  A    between atoms: _388  and  _389
REMARK  155  A    between atoms: _389  and  _390
REMARK  156  A    between atoms: _393  and  _395
REMARK  157  A    between atoms: _395  and  _396
REMARK  158  A    between atoms: _395  and  _398
REMARK  159  A    between atoms: _401  and  _403
REMARK  160  A    between atoms: _403  and  _404
REMARK  161  A    between atoms: _403  and  _406
REMARK  162  A    between atoms: _406  and  _407
REMARK  163  A    between atoms: _410  and  _412
REMARK  164  A    between atoms: _412  and  _413
REMARK  165  A    between atoms: _415  and  _417
REMARK  166  A    between atoms: _417  and  _418
REMARK  167  A    between atoms: _417  and  _420
REMARK  168  A    between atoms: _420  and  _421
REMARK  169  A    between atoms: _421  and  _422
REMARK  170  A    between atoms: _425  and  _427
REMARK  171  A    between atoms: _427  and  _428
REMARK  172  A    between atoms: _427  and  _430
REMARK  173  A    between atoms: _430  and  _431
REMARK  174  A    between atoms: _437  and  _439
REMARK  175  A    between atoms: _439  and  _440
REMARK  176  A    between atoms: _439  and  _442
REMARK  177  A    between atoms: _445  and  _447
REMARK  178  A    between atoms: _447  and  _448
REMARK  179  A    between atoms: _447  and  _450
REMARK  180  A    between atoms: _450  and  _451
REMARK                            x       y       z     vdW  Elec       q    Type
REMARK                         _______ _______ _______ _____ _____    ______ ____
ROOT
ATOM      1  CA  LEU A   1      51.540  26.706  31.969  0.00  0.00    +0.133 C 
ENDROOT
BRANCH   1   2
ATOM      2  N   LEU A   1      50.105  26.616  31.708  0.00  0.00    -0.239 NA
ATOM      3  H   LEU A   1      49.565  25.815  32.092  0.00  0.00    +0.142 HD
ENDBRANCH   1   2
BRANCH   1   4
ATOM      4  C   LEU A   1      52.356  26.688  30.675  0.00  0.00    +0.224 C 
ATOM      5  O   LEU A   1      53.382  27.367  30.567  0.00  0.00    -0.287 OA
ENDBRANCH   1   4
BRANCH   1   6
ATOM      6  CB  LEU A   1      51.986  25.568  32.895  0.00  0.00    +0.025 C 
BRANCH   6   7
ATOM      7  CG  LEU A   1      51.418  25.614  34.317  0.00  0.00    +0.002 C 
ATOM      8  CD2 LEU A   1      51.976  24.458  35.145  0.00  0.00    +0.000 C 
ATOM      9  CD1 LEU A   1      51.777  26.942  34.959  0.00  0.00    +0.000 C 
ENDBRANCH   6   7
ENDBRANCH   1   6
TORSDOF 4
REMARK  Name = ../refined-set-2016/1n3i/1n3i_pocket.pdb
REMARK  180 active torsions:
REMARK  status: ('A' for Active; 'I' for Inactive)
REMARK    1  A    between atoms: _1  and  _3
REMARK    2  A    between atoms: _3  and  _4
REMARK    3  A    between atoms: _6  and  _8
REMARK    4  A    between atoms: _8  and  _9
REMARK    5  A    between atoms: _8  and  _11
REMARK    6  A    between atoms: _11  and  _12
REMARK    7  A    between atoms: _14  and  _16
REMARK    8  A    between atoms: _16  and  _17
REMARK    9  A    between atoms: _19  and  _21
REMARK   10  A    between atoms: _21  and  _22
REMARK   11  A    between atoms: _25  and  _27
REMARK   12  A    between atoms: _27  and  _28
REMARK   13  A    between atoms: _31  and  _33
REMARK   14  A    between atoms: _33  and  _34
REMARK   15  A    between atoms: _33  and  _36
REMARK   16  A    between atoms: _36  and  _37
REMARK   17  A    between atoms: _42  and  _44
REMARK   18  A    between atoms: _44  and  _45
REMARK   19  A    between atoms: _44  and  _47
REMARK   20  A    between atoms: _47  and  _48
REMARK   21  A    between atoms: _48  and  _49
REMARK   22  A    between atoms: _49  and  _50
REMARK   23  A    between atoms: _59  and  _61
REMARK   24  A    between atoms: _61  and  _62
REMARK   25  A    between atoms: _61  and  _64
REMARK   26  A    between atoms: _64  and  _65
REMARK   27  A    between atoms: _68  and  _70
REMARK   28  A    between atoms: _70  and  _71
REMARK   29  A    between atoms: _70  and  _73
REMARK   30  A    between atoms: _73  and  _74
REMARK   31  A    between atoms: _79  and  _81
REMARK   32  A    between atoms: _81  and  _82
REMARK   33  A    between atoms: _85  and  _87
REMARK   34  A    between atoms: _87  and  _88
REMARK   35  A    between atoms: _87  and  _90
REMARK   36  A    between atoms: _90  and  _91
REMARK   37  A    between atoms: _96  and  _97
REMARK   38  A    between atoms: _99  and  _101
REMARK   39  A    between atoms: _101  and  _102
REMARK   40  A    between atoms: _101  and  _104
REMARK   41  A    between atoms: _104  and  _105
REMARK   42  A    between atoms: _105  and  _106
REMARK   43  A    between atoms: _109  and  _111
REMARK   44  A    between atoms: _111  and  _112
REMARK   45  A    between atoms: _111  and  _114
REMARK   46  A    between atoms: _114  and  _115
REMARK   47  A    between atoms: _120  and  _122
REMARK   48  A    between atoms: _122  and  _123
REMARK   49  A    between atoms: _126  and  _128
REMARK   50  A    between atoms: _128  and  _129
REMARK   51  A    between atoms: _132  and  _134
REMARK   52  A    between atoms: _134  and  _135
REMARK   53  A    between atoms: _137  and  _139
REMARK   54  A    between atoms: _139  and  _140
REMARK   55  A    between atoms: _142  and  _144
REMARK   56  A    between atoms: _144  and  _145
REMARK   57  A    between atoms: _144  and  _147
REMARK   58  A    between atoms: _147  and  _148
REMARK   59  A    between atoms: _151  and  _153
REMARK   60  A    between atoms: _153  and  _154
REMARK   61  A    between atoms: _153  and  _156
REMARK   62  A    between atoms: _156  and  _157
REMARK   63  A    between atoms: _162  and  _163
REMARK   64  A    between atoms: _165  and  _167
REMARK   65  A    between atoms: _167  and  _168
REMARK   66  A    between atoms: _171  and  _173
REMARK   67  A    between atoms: _173  and  _174
REMARK   68  A    between atoms: _173  and  _176
REMARK   69  A    between atoms: _176  and  _177
REMARK   70  A    between atoms: _181  and  _182
REMARK   71  A    between atoms: _187  and  _189
REMARK   72  A    between atoms: _189  and  _190
REMARK   73  A    between atoms: _193  and  _194
REMARK   74  A    between atoms: _199  and  _201
REMARK   75  A    between atoms: _201  and  _202
REMARK   76  A    between atoms: _201  and  _204
REMARK   77  A    between atoms: _204  and  _205
REMARK   78  A    between atoms: _210  and  _212
REMARK   79  A    between atoms: _212  and  _213
REMARK   80  A    between atoms: _212  and  _215
REMARK   81  A    between atoms: _215  and  _216
REMARK   82  A    between atoms: _221  and  _222
REMARK   83  A    between atoms: _224  and  _226
REMARK   84  A    between atoms: _226  and  _227
REMARK   85  A    between atoms: _226  and  _229
REMARK   86  A    between atoms: _229  and  _230
REMARK   87  A    between atoms: _230  and  _231
REMARK   88  A    between atoms: _234  and  _236
REMARK   89  A    between atoms: _236  and  _237
REMARK   90  A    between atoms: _236  and  _239
REMARK   91  A    between atoms: _239  and  _240
REMARK   92  A    between atoms: _243  and  _245
REMARK   93  A    between atoms: _245  and  _246
REMARK   94  A    between atoms: _245  and  _248
REMARK   95  A    between atoms: _248  and  _249
REMARK   96  A    between atoms: _252  and  _254
REMARK   97  A    between atoms: _254  and  _255
REMARK   98  A    between atoms: _254  and  _257
REMARK   99  A    between atoms: _257  and  _258
REMARK  100  A    between atoms: _261  and  _263
REMARK  101  A    between atoms: _263  and  _264
REMARK  102  A    between atoms: _263  and  _266
REMARK  103  A    between atoms: _269  and  _271
REMARK  104  A    between atoms: _271  and  _272
REMARK  105  A    between atoms: _274  and  _276
REMARK  106  A    between atoms: _276  and  _277
REMARK  107  A    between atoms: _276  and  _279
REMARK  108  A    between atoms: _279  and  _280
REMARK  109  A    between atoms: _280  and  _281
REMARK  110  A    between atoms: _283  and  _285
REMARK  111  A    between atoms: _285  and  _286
REMARK  112  A    between atoms: _285  and  _288
REMARK  113  A    between atoms: _288  and  _289
REMARK  114  A    between atoms: _291  and  _293
REMARK  115  A    between atoms: _293  and  _294
REMARK  116  A    between atoms: _293  and  _296
REMARK  117  A    between atoms: _296  and  _297
REMARK  118  A    between atoms: _300  and  _302
REMARK  119  A    between atoms: _302  and  _303
REMARK  120  A    between atoms: _302  and  _305
REMARK  121  A    between atoms: _308  and  _310
REMARK  122  A    between atoms: _310  and  _311
REMARK  123  A    between atoms: _310  and  _313
REMARK  124  A    between atoms: _313  and  _314
REMARK  125  A    between atoms: _317  and  _319
REMARK  126  A    between atoms: _319  and  _320
REMARK  127  A    between atoms: _319  and  _322
REMARK  128  A    between atoms: _322  and  _323
REMARK  129  A    between atoms: _328  and  _330
REMARK  130  A    between atoms: _330  and  _331
REMARK  131  A    between atoms: _330  and  _333
REMARK  132  A    between atoms: _333  and  _334
REMARK  133  A    between atoms: _337  and  _339
REMARK  134  A    between atoms: _339  and  _340
REMARK  135  A    between atoms: _343  and  _345
REMARK  136  A    between atoms: _345  and  _346
REMARK  137  A    between atoms: _349  and  _351
REMARK  138  A    between atoms: _351  and  _352
REMARK  139  A    between atoms: _351  and  _354
REMARK  140  A    between atoms: _354  and  _355
REMARK  141  A    between atoms: _358  and  _360
REMARK  142  A    between atoms: _360  and  _361
REMARK  143  A    between atoms: _360  and  _363
REMARK  144  A    between atoms: _363  and  _364
REMARK  145  A    between atoms: _366  and  _368
REMARK  146  A    between atoms: _368  and  _369
REMARK  147  A    between atoms: _368  and  _371
REMARK  148  A    between atoms: _371  and  _372
REMARK  149  A    between atoms: _377  and  _379
REMARK  150  A    between atoms: _379  and  _380
REMARK  151  A    between atoms: _383  and  _385
REMARK  152  A    between atoms: _385  and  _386
REMARK  153  A    between atoms: _385  and  _388
REMARK  154  A    between atoms: _388  and  _389
REMARK  155  A    between atoms: _389  and  _390
REMARK  156  A    between atoms: _393  and  _395
REMARK  157  A    between atoms: _395  and  _396
REMARK  158  A    between atoms: _395  and  _398
REMARK  159  A    between atoms: _401  and  _403
REMARK  160  A    between atoms: _403  and  _404
REMARK  161  A    between atoms: _403  and  _406
REMARK  162  A    between atoms: _406  and  _407
REMARK  163  A    between atoms: _410  and  _412
REMARK  164  A    between atoms: _412  and  _413
REMARK  165  A    between atoms: _415  and  _417
REMARK  166  A    between atoms: _417  and  _418
REMARK  167  A    between atoms: _417  and  _420
REMARK  168  A    between atoms: _420  and  _421
REMARK  169  A    between atoms: _421  and  _422
REMARK  170  A    between atoms: _425  and  _427
REMARK  171  A    between atoms: _427  and  _428
REMARK  172  A    between atoms: _427  and  _430
REMARK  173  A    between atoms: _430  and  _431
REMARK  174  A    between atoms: _437  and  _439
REMARK  175  A    between atoms: _439  and  _440
REMARK  176  A    between atoms: _439  and  _442
REMARK  177  A    between atoms: _445  and  _447
REMARK  178  A    between atoms: _447  and  _448
REMARK  179  A    between atoms: _447  and  _450
REMARK  180  A    between atoms: _450  and  _451
REMARK                            x       y       z     vdW  Elec       q    Type
REMARK                         _______ _______ _______ _____ _____    ______ ____
ROOT
ATOM      1  CA  GLY A   3      57.092  21.263  40.271  0.00  0.00    +0.176 C 
ENDROOT
BRANCH   1   3
ATOM      2  C   VAL A   2      56.632  21.135  37.894  0.00  0.00    +0.241 C 
ATOM      3  N   GLY A   3      56.771  21.874  38.993  0.00  0.00    -0.295 N 
ATOM      4  H   GLY A   3      56.648  22.905  38.935  0.00  0.00    +0.150 HD
ATOM      5  O   VAL A   2      56.766  19.910  37.886  0.00  0.00    -0.273 OA
BRANCH   2   6
ATOM      6  CA  VAL A   2      56.308  21.895  36.611  0.00  0.00    +0.148 C 
BRANCH   6   8
ATOM      7  C   LEU A   1      57.785  22.262  34.720  0.00  0.00    +0.238 C 
ATOM      8  N   VAL A   2      57.152  21.411  35.521  0.00  0.00    -0.297 N 
ATOM      9  H   VAL A   2      57.259  20.388  35.370  0.00  0.00    +0.150 HD
ATOM     10  O   LEU A   1      57.683  23.480  34.832  0.00  0.00    -0.274 OA
BRANCH   7  11
ATOM     11  CA  LEU A   1      58.672  21.665  33.633  0.00  0.00    +0.145 C 
BRANCH  11  12
ATOM     12  N   LEU A   1      58.684  22.573  32.489  0.00  0.00    -0.238 NA
ATOM     13  H   LEU A   1      58.802  23.590  32.670  0.00  0.00    +0.142 HD
ENDBRANCH  11  12
BRANCH  11  14
ATOM     14  CB  LEU A   1      60.088  21.524  34.195  0.00  0.00    +0.026 C 
BRANCH  14  15
ATOM     15  CG  LEU A   1      61.215  21.087  33.252  0.00  0.00    +0.002 C 
ATOM     16  CD2 LEU A   1      62.553  21.569  33.794  0.00  0.00    +0.000 C 
ATOM     17  CD1 LEU A   1      61.197  19.576  33.095  0.00  0.00    +0.000 C 
ENDBRANCH  14  15
ENDBRANCH  11  14
ENDBRANCH   7  11
ENDBRANCH   6   8
BRANCH   6  18
ATOM     18  CB  VAL A   2      54.794  21.753  36.282  0.00  0.00    +0.027 C 
ATOM     19  CG2 VAL A   2      53.959  22.395  37.398  0.00  0.00    +0.002 C 
ATOM     20  CG1 VAL A   2      54.421  20.284  36.106  0.00  0.00    +0.002 C 
ENDBRANCH   6  18
ENDBRANCH   2   6
ENDBRANCH   1   3
BRANCH   1  21
ATOM     21  C   GLY A   3      56.558  22.076  41.436  0.00  0.00    +0.243 C 
ATOM     22  N   MET A   4      56.914  21.686  42.659  0.00  0.00    -0.297 N 
ATOM     23  H   MET A   4      57.552  20.872  42.766  0.00  0.00    +0.150 HD
ATOM     24  O   GLY A   3      55.846  23.059  41.228  0.00  0.00    -0.273 OA
BRANCH  22  25
ATOM     25  CA  MET A   4      56.430  22.374  43.856  0.00  0.00    +0.149 C 
BRANCH  25  26
ATOM     26  C   MET A   4      57.533  22.812  44.821  0.00  0.00    +0.241 C 
ATOM     27  O   MET A   4      57.335  22.806  46.034  0.00  0.00    -0.273 OA
ATOM     28  N   SER A   5      58.686  23.196  44.291  0.00  0.00    -0.296 N 
ATOM     29  H   SER A   5      58.803  23.191  43.258  0.00  0.00    +0.150 HD
BRANCH  28  30
ATOM     30  CA  SER A   5      59.795  23.627  45.141  0.00  0.00    +0.166 C 
BRANCH  30  31
ATOM     31  CB  SER A   5      60.762  24.482  44.347  0.00  0.00    +0.229 C 
ATOM     32  OG  SER A   5      60.381  25.126  43.373  0.00  0.00    -0.286 OA
ENDBRANCH  30  31
BRANCH  30  33
ATOM     33  C   SER A   5      60.554  22.406  45.674  0.00  0.00    +0.165 C 
BRANCH  33  34
ATOM     34  O   SER A   5      61.248  21.740  44.625  0.00  0.00    -0.380 OA
ATOM     35  H   SER A   5      61.897  22.363  44.213  0.00  0.00    +0.211 HD
ENDBRANCH  33  34
ENDBRANCH  30  33
ENDBRANCH  28  30
ENDBRANCH  25  26
BRANCH  25  36
ATOM     36  CB  MET A   4      55.449  21.466  44.604  0.00  0.00    +0.041 C 
BRANCH  36  37
ATOM     37  CG  MET A   4      54.328  20.905  43.740  0.00  0.00    +0.060 C 
BRANCH  37  38
ATOM     38  SD  MET A   4      53.398  19.624  44.629  0.00  0.00    -0.139 S 
ATOM     39  CE  MET A   4      52.298  19.073  43.369  0.00  0.00    +0.069 C 
ENDBRANCH  37  38
ENDBRANCH  36  37
ENDBRANCH  25  36
ENDBRANCH  22  25
ENDBRANCH   1  21
TORSDOF 18
REMARK  Name = ../refined-set-2016/1n3i/1n3i_pocket.pdb
REMARK  180 active torsions:
REMARK  status: ('A' for Active; 'I' for Inactive)
REMARK    1  A    between atoms: _1  and  _3
REMARK    2  A    between atoms: _3  and  _4
REMARK    3  A    between atoms: _6  and  _8
REMARK    4  A    between atoms: _8  and  _9
REMARK    5  A    between atoms: _8  and  _11
REMARK    6  A    between atoms: _11  and  _12
REMARK    7  A    between atoms: _14  and  _16
REMARK    8  A    between atoms: _16  and  _17
REMARK    9  A    between atoms: _19  and  _21
REMARK   10  A    between atoms: _21  and  _22
REMARK   11  A    between atoms: _25  and  _27
REMARK   12  A    between atoms: _27  and  _28
REMARK   13  A    between atoms: _31  and  _33
REMARK   14  A    between atoms: _33  and  _34
REMARK   15  A    between atoms: _33  and  _36
REMARK   16  A    between atoms: _36  and  _37
REMARK   17  A    between atoms: _42  and  _44
REMARK   18  A    between atoms: _44  and  _45
REMARK   19  A    between atoms: _44  and  _47
REMARK   20  A    between atoms: _47  and  _48
REMARK   21  A    between atoms: _48  and  _49
REMARK   22  A    between atoms: _49  and  _50
REMARK   23  A    between atoms: _59  and  _61
REMARK   24  A    between atoms: _61  and  _62
REMARK   25  A    between atoms: _61  and  _64
REMARK   26  A    between atoms: _64  and  _65
REMARK   27  A    between atoms: _68  and  _70
REMARK   28  A    between atoms: _70  and  _71
REMARK   29  A    between atoms: _70  and  _73
REMARK   30  A    between atoms: _73  and  _74
REMARK   31  A    between atoms: _79  and  _81
REMARK   32  A    between atoms: _81  and  _82
REMARK   33  A    between atoms: _85  and  _87
REMARK   34  A    between atoms: _87  and  _88
REMARK   35  A    between atoms: _87  and  _90
REMARK   36  A    between atoms: _90  and  _91
REMARK   37  A    between atoms: _96  and  _97
REMARK   38  A    between atoms: _99  and  _101
REMARK   39  A    between atoms: _101  and  _102
REMARK   40  A    between atoms: _101  and  _104
REMARK   41  A    between atoms: _104  and  _105
REMARK   42  A    between atoms: _105  and  _106
REMARK   43  A    between atoms: _109  and  _111
REMARK   44  A    between atoms: _111  and  _112
REMARK   45  A    between atoms: _111  and  _114
REMARK   46  A    between atoms: _114  and  _115
REMARK   47  A    between atoms: _120  and  _122
REMARK   48  A    between atoms: _122  and  _123
REMARK   49  A    between atoms: _126  and  _128
REMARK   50  A    between atoms: _128  and  _129
REMARK   51  A    between atoms: _132  and  _134
REMARK   52  A    between atoms: _134  and  _135
REMARK   53  A    between atoms: _137  and  _139
REMARK   54  A    between atoms: _139  and  _140
REMARK   55  A    between atoms: _142  and  _144
REMARK   56  A    between atoms: _144  and  _145
REMARK   57  A    between atoms: _144  and  _147
REMARK   58  A    between atoms: _147  and  _148
REMARK   59  A    between atoms: _151  and  _153
REMARK   60  A    between atoms: _153  and  _154
REMARK   61  A    between atoms: _153  and  _156
REMARK   62  A    between atoms: _156  and  _157
REMARK   63  A    between atoms: _162  and  _163
REMARK   64  A    between atoms: _165  and  _167
REMARK   65  A    between atoms: _167  and  _168
REMARK   66  A    between atoms: _171  and  _173
REMARK   67  A    between atoms: _173  and  _174
REMARK   68  A    between atoms: _173  and  _176
REMARK   69  A    between atoms: _176  and  _177
REMARK   70  A    between atoms: _181  and  _182
REMARK   71  A    between atoms: _187  and  _189
REMARK   72  A    between atoms: _189  and  _190
REMARK   73  A    between atoms: _193  and  _194
REMARK   74  A    between atoms: _199  and  _201
REMARK   75  A    between atoms: _201  and  _202
REMARK   76  A    between atoms: _201  and  _204
REMARK   77  A    between atoms: _204  and  _205
REMARK   78  A    between atoms: _210  and  _212
REMARK   79  A    between atoms: _212  and  _213
REMARK   80  A    between atoms: _212  and  _215
REMARK   81  A    between atoms: _215  and  _216
REMARK   82  A    between atoms: _221  and  _222
REMARK   83  A    between atoms: _224  and  _226
REMARK   84  A    between atoms: _226  and  _227
REMARK   85  A    between atoms: _226  and  _229
REMARK   86  A    between atoms: _229  and  _230
REMARK   87  A    between atoms: _230  and  _231
REMARK   88  A    between atoms: _234  and  _236
REMARK   89  A    between atoms: _236  and  _237
REMARK   90  A    between atoms: _236  and  _239
REMARK   91  A    between atoms: _239  and  _240
REMARK   92  A    between atoms: _243  and  _245
REMARK   93  A    between atoms: _245  and  _246
REMARK   94  A    between atoms: _245  and  _248
REMARK   95  A    between atoms: _248  and  _249
REMARK   96  A    between atoms: _252  and  _254
REMARK   97  A    between atoms: _254  and  _255
REMARK   98  A    between atoms: _254  and  _257
REMARK   99  A    between atoms: _257  and  _258
REMARK  100  A    between atoms: _261  and  _263
REMARK  101  A    between atoms: _263  and  _264
REMARK  102  A    between atoms: _263  and  _266
REMARK  103  A    between atoms: _269  and  _271
REMARK  104  A    between atoms: _271  and  _272
REMARK  105  A    between atoms: _274  and  _276
REMARK  106  A    between atoms: _276  and  _277
REMARK  107  A    between atoms: _276  and  _279
REMARK  108  A    between atoms: _279  and  _280
REMARK  109  A    between atoms: _280  and  _281
REMARK  110  A    between atoms: _283  and  _285
REMARK  111  A    between atoms: _285  and  _286
REMARK  112  A    between atoms: _285  and  _288
REMARK  113  A    between atoms: _288  and  _289
REMARK  114  A    between atoms: _291  and  _293
REMARK  115  A    between atoms: _293  and  _294
REMARK  116  A    between atoms: _293  and  _296
REMARK  117  A    between atoms: _296  and  _297
REMARK  118  A    between atoms: _300  and  _302
REMARK  119  A    between atoms: _302  and  _303
REMARK  120  A    between atoms: _302  and  _305
REMARK  121  A    between atoms: _308  and  _310
REMARK  122  A    between atoms: _310  and  _311
REMARK  123  A    between atoms: _310  and  _313
REMARK  124  A    between atoms: _313  and  _314
REMARK  125  A    between atoms: _317  and  _319
REMARK  126  A    between atoms: _319  and  _320
REMARK  127  A    between atoms: _319  and  _322
REMARK  128  A    between atoms: _322  and  _323
REMARK  129  A    between atoms: _328  and  _330
REMARK  130  A    between atoms: _330  and  _331
REMARK  131  A    between atoms: _330  and  _333
REMARK  132  A    between atoms: _333  and  _334
REMARK  133  A    between atoms: _337  and  _339
REMARK  134  A    between atoms: _339  and  _340
REMARK  135  A    between atoms: _343  and  _345
REMARK  136  A    between atoms: _345  and  _346
REMARK  137  A    between atoms: _349  and  _351
REMARK  138  A    between atoms: _351  and  _352
REMARK  139  A    between atoms: _351  and  _354
REMARK  140  A    between atoms: _354  and  _355
REMARK  141  A    between atoms: _358  and  _360
REMARK  142  A    between atoms: _360  and  _361
REMARK  143  A    between atoms: _360  and  _363
REMARK  144  A    between atoms: _363  and  _364
REMARK  145  A    between atoms: _366  and  _368
REMARK  146  A    between atoms: _368  and  _369
REMARK  147  A    between atoms: _368  and  _371
REMARK  148  A    between atoms: _371  and  _372
REMARK  149  A    between atoms: _377  and  _379
REMARK  150  A    between atoms: _379  and  _380
REMARK  151  A    between atoms: _383  and  _385
REMARK  152  A    between atoms: _385  and  _386
REMARK  153  A    between atoms: _385  and  _388
REMARK  154  A    between atoms: _388  and  _389
REMARK  155  A    between atoms: _389  and  _390
REMARK  156  A    between atoms: _393  and  _395
REMARK  157  A    between atoms: _395  and  _396
REMARK  158  A    between atoms: _395  and  _398
REMARK  159  A    between atoms: _401  and  _403
REMARK  160  A    between atoms: _403  and  _404
REMARK  161  A    between atoms: _403  and  _406
REMARK  162  A    between atoms: _406  and  _407
REMARK  163  A    between atoms: _410  and  _412
REMARK  164  A    between atoms: _412  and  _413
REMARK  165  A    between atoms: _415  and  _417
REMARK  166  A    between atoms: _417  and  _418
REMARK  167  A    between atoms: _417  and  _420
REMARK  168  A    between atoms: _420  and  _421
REMARK  169  A    between atoms: _421  and  _422
REMARK  170  A    between atoms: _425  and  _427
REMARK  171  A    between atoms: _427  and  _428
REMARK  172  A    between atoms: _427  and  _430
REMARK  173  A    between atoms: _430  and  _431
REMARK  174  A    between atoms: _437  and  _439
REMARK  175  A    between atoms: _439  and  _440
REMARK  176  A    between atoms: _439  and  _442
REMARK  177  A    between atoms: _445  and  _447
REMARK  178  A    between atoms: _447  and  _448
REMARK  179  A    between atoms: _447  and  _450
REMARK  180  A    between atoms: _450  and  _451
REMARK                            x       y       z     vdW  Elec       q    Type
REMARK                         _______ _______ _______ _____ _____    ______ ____
ROOT
ATOM      1  CA  ASN A   4      56.056  11.966  34.512  0.00  0.00    +0.158 C 
ENDROOT
BRANCH   1   2
ATOM      2  C   ASN A   4      55.729  13.077  33.523  0.00  0.00    +0.241 C 
ATOM      3  O   ASN A   4      56.224  14.196  33.647  0.00  0.00    -0.273 OA
ATOM      4  N   LEU A   5      54.901  12.765  32.533  0.00  0.00    -0.297 N 
ATOM      5  H   LEU A   5      54.552  11.790  32.437  0.00  0.00    +0.150 HD
BRANCH   4   6
ATOM      6  CA  LEU A   5      54.483  13.780  31.586  0.00  0.00    +0.149 C 
BRANCH   6   7
ATOM      7  C   LEU A   5      53.378  14.523  32.338  0.00  0.00    +0.241 C 
ATOM      8  O   LEU A   5      52.634  13.911  33.106  0.00  0.00    -0.273 OA
ATOM      9  N   ALA A   6      53.288  15.835  32.142  0.00  0.00    -0.297 N 
ATOM     10  H   ALA A   6      53.940  16.296  31.475  0.00  0.00    +0.150 HD
BRANCH   9  11
ATOM     11  CA  ALA A   6      52.293  16.644  32.843  0.00  0.00    +0.149 C 
ATOM     12  CB  ALA A   6      52.402  18.098  32.398  0.00  0.00    +0.031 C 
BRANCH  11  13
ATOM     13  C   ALA A   6      50.858  16.147  32.678  0.00  0.00    +0.241 C 
ATOM     14  N   ALA A   7      50.007  16.508  33.635  0.00  0.00    -0.298 N 
ATOM     15  H   ALA A   7      50.350  17.101  34.417  0.00  0.00    +0.150 HD
ATOM     16  O   ALA A   6      50.528  15.459  31.710  0.00  0.00    -0.273 OA
BRANCH  14  17
ATOM     17  CA  ALA A   7      48.605  16.096  33.620  0.00  0.00    +0.137 C 
ATOM     18  CB  ALA A   7      47.854  16.767  34.773  0.00  0.00    +0.030 C 
BRANCH  17  19
ATOM     19  C   ALA A   7      47.906  16.403  32.299  0.00  0.00    +0.227 C 
ATOM     20  O   ALA A   7      48.055  17.490  31.738  0.00  0.00    -0.286 OA
ENDBRANCH  17  19
ENDBRANCH  14  17
ENDBRANCH  11  13
ENDBRANCH   9  11
ENDBRANCH   6   7
BRANCH   6  21
ATOM     21  CB  LEU A   5      53.947  13.133  30.308  0.00  0.00    +0.029 C 
BRANCH  21  22
ATOM     22  CG  LEU A   5      54.980  12.294  29.542  0.00  0.00    +0.002 C 
ATOM     23  CD2 LEU A   5      56.226  13.130  29.267  0.00  0.00    +0.000 C 
ATOM     24  CD1 LEU A   5      54.379  11.806  28.233  0.00  0.00    +0.000 C 
ENDBRANCH  21  22
ENDBRANCH   6  21
ENDBRANCH   4   6
ENDBRANCH   1   2
BRANCH   1  27
ATOM     25  C   THR A   3      57.934  11.336  35.930  0.00  0.00    +0.243 C 
ATOM     26  O   THR A   3      57.450  10.233  36.189  0.00  0.00    -0.273 OA
ATOM     27  N   ASN A   4      57.345  12.223  35.137  0.00  0.00    -0.297 N 
ATOM     28  H   ASN A   4      57.820  13.131  34.957  0.00  0.00    +0.150 HD
BRANCH  25  29
ATOM     29  CA  THR A   3      59.268  11.751  36.524  0.00  0.00    +0.176 C 
BRANCH  29  31
ATOM     30  C   VAL A   2      60.633  12.991  34.934  0.00  0.00    +0.241 C 
ATOM     31  N   THR A   3      59.791  12.993  35.963  0.00  0.00    -0.295 N 
ATOM     32  H   THR A   3      59.498  13.901  36.378  0.00  0.00    +0.150 HD
ATOM     33  O   VAL A   2      61.016  11.957  34.379  0.00  0.00    -0.273 OA
BRANCH  30  34
ATOM     34  CA  VAL A   2      61.125  14.356  34.469  0.00  0.00    +0.148 C 
BRANCH  34  37
ATOM     35  C   LEU A   1      62.779  14.642  36.222  0.00  0.00    +0.238 C 
ATOM     36  O   LEU A   1      61.907  14.670  37.090  0.00  0.00    -0.274 OA
ATOM     37  N   VAL A   2      62.501  14.515  34.928  0.00  0.00    -0.297 N 
ATOM     38  H   VAL A   2      63.275  14.529  34.233  0.00  0.00    +0.150 HD
BRANCH  35  39
ATOM     39  CA  LEU A   1      64.248  14.800  36.602  0.00  0.00    +0.145 C 
BRANCH  39  40
ATOM     40  N   LEU A   1      64.329  16.148  37.138  0.00  0.00    -0.238 NA
ATOM     41  H   LEU A   1      63.854  16.374  38.035  0.00  0.00    +0.142 HD
ENDBRANCH  39  40
BRANCH  39  42
ATOM     42  CB  LEU A   1      64.626  13.759  37.656  0.00  0.00    +0.026 C 
BRANCH  42  43
ATOM     43  CG  LEU A   1      64.747  12.342  37.097  0.00  0.00    +0.002 C 
ATOM     44  CD2 LEU A   1      64.857  11.361  38.244  0.00  0.00    +0.000 C 
ATOM     45  CD1 LEU A   1      65.973  12.247  36.187  0.00  0.00    +0.000 C 
ENDBRANCH  42  43
ENDBRANCH  39  42
ENDBRANCH  35  39
ENDBRANCH  34  37
BRANCH  34  46
ATOM     46  CB  VAL A   2      61.034  14.450  32.930  0.00  0.00    +0.027 C 
ATOM     47  CG2 VAL A   2      59.578  14.343  32.481  0.00  0.00    +0.002 C 
ATOM     48  CG1 VAL A   2      61.634  15.768  32.461  0.00  0.00    +0.002 C 
ENDBRANCH  34  46
ENDBRANCH  30  34
ENDBRANCH  29  31
BRANCH  29  49
ATOM     49  CB  THR A   3      59.092  11.870  38.049  0.00  0.00    +0.137 C 
ATOM     50  CG2 THR A   3      60.437  11.974  38.732  0.00  0.00    +0.034 C 
BRANCH  49  51
ATOM     51  OG1 THR A   3      58.308  13.032  38.348  0.00  0.00    -0.382 OA
ATOM     52  HG1 THR A   3      57.420  12.950  37.917  0.00  0.00    +0.210 HD
ENDBRANCH  49  51
ENDBRANCH  29  49
ENDBRANCH  25  29
ENDBRANCH   1  27
BRANCH   1  53
ATOM     53  CB  ASN A   4      54.954  11.933  35.574  0.00  0.00    +0.114 C 
BRANCH  53  54
ATOM     54  CG  ASN A   4      54.885  13.224  36.379  0.00  0.00    +0.222 C 
ATOM     55  OD1 ASN A   4      55.725  13.473  37.241  0.00  0.00    -0.275 OA
ATOM     56  ND2 ASN A   4      53.892  14.057  36.087  0.00  0.00    -0.329 N 
ATOM     57 HD21 ASN A   4      53.804  14.960  36.596  0.00  0.00    +0.145 HD
ATOM     58 HD22 ASN A   4      53.203  13.806  35.350  0.00  0.00    +0.145 HD
ENDBRANCH  53  54
ENDBRANCH   1  53
TORSDOF 23
REMARK  Name = ../refined-set-2016/1n3i/1n3i_pocket.pdb
REMARK  180 active torsions:
REMARK  status: ('A' for Active; 'I' for Inactive)
REMARK    1  A    between atoms: _1  and  _3
REMARK    2  A    between atoms: _3  and  _4
REMARK    3  A    between atoms: _6  and  _8
REMARK    4  A    between atoms: _8  and  _9
REMARK    5  A    between atoms: _8  and  _11
REMARK    6  A    between atoms: _11  and  _12
REMARK    7  A    between atoms: _14  and  _16
REMARK    8  A    between atoms: _16  and  _17
REMARK    9  A    between atoms: _19  and  _21
REMARK   10  A    between atoms: _21  and  _22
REMARK   11  A    between atoms: _25  and  _27
REMARK   12  A    between atoms: _27  and  _28
REMARK   13  A    between atoms: _31  and  _33
REMARK   14  A    between atoms: _33  and  _34
REMARK   15  A    between atoms: _33  and  _36
REMARK   16  A    between atoms: _36  and  _37
REMARK   17  A    between atoms: _42  and  _44
REMARK   18  A    between atoms: _44  and  _45
REMARK   19  A    between atoms: _44  and  _47
REMARK   20  A    between atoms: _47  and  _48
REMARK   21  A    between atoms: _48  and  _49
REMARK   22  A    between atoms: _49  and  _50
REMARK   23  A    between atoms: _59  and  _61
REMARK   24  A    between atoms: _61  and  _62
REMARK   25  A    between atoms: _61  and  _64
REMARK   26  A    between atoms: _64  and  _65
REMARK   27  A    between atoms: _68  and  _70
REMARK   28  A    between atoms: _70  and  _71
REMARK   29  A    between atoms: _70  and  _73
REMARK   30  A    between atoms: _73  and  _74
REMARK   31  A    between atoms: _79  and  _81
REMARK   32  A    between atoms: _81  and  _82
REMARK   33  A    between atoms: _85  and  _87
REMARK   34  A    between atoms: _87  and  _88
REMARK   35  A    between atoms: _87  and  _90
REMARK   36  A    between atoms: _90  and  _91
REMARK   37  A    between atoms: _96  and  _97
REMARK   38  A    between atoms: _99  and  _101
REMARK   39  A    between atoms: _101  and  _102
REMARK   40  A    between atoms: _101  and  _104
REMARK   41  A    between atoms: _104  and  _105
REMARK   42  A    between atoms: _105  and  _106
REMARK   43  A    between atoms: _109  and  _111
REMARK   44  A    between atoms: _111  and  _112
REMARK   45  A    between atoms: _111  and  _114
REMARK   46  A    between atoms: _114  and  _115
REMARK   47  A    between atoms: _120  and  _122
REMARK   48  A    between atoms: _122  and  _123
REMARK   49  A    between atoms: _126  and  _128
REMARK   50  A    between atoms: _128  and  _129
REMARK   51  A    between atoms: _132  and  _134
REMARK   52  A    between atoms: _134  and  _135
REMARK   53  A    between atoms: _137  and  _139
REMARK   54  A    between atoms: _139  and  _140
REMARK   55  A    between atoms: _142  and  _144
REMARK   56  A    between atoms: _144  and  _145
REMARK   57  A    between atoms: _144  and  _147
REMARK   58  A    between atoms: _147  and  _148
REMARK   59  A    between atoms: _151  and  _153
REMARK   60  A    between atoms: _153  and  _154
REMARK   61  A    between atoms: _153  and  _156
REMARK   62  A    between atoms: _156  and  _157
REMARK   63  A    between atoms: _162  and  _163
REMARK   64  A    between atoms: _165  and  _167
REMARK   65  A    between atoms: _167  and  _168
REMARK   66  A    between atoms: _171  and  _173
REMARK   67  A    between atoms: _173  and  _174
REMARK   68  A    between atoms: _173  and  _176
REMARK   69  A    between atoms: _176  and  _177
REMARK   70  A    between atoms: _181  and  _182
REMARK   71  A    between atoms: _187  and  _189
REMARK   72  A    between atoms: _189  and  _190
REMARK   73  A    between atoms: _193  and  _194
REMARK   74  A    between atoms: _199  and  _201
REMARK   75  A    between atoms: _201  and  _202
REMARK   76  A    between atoms: _201  and  _204
REMARK   77  A    between atoms: _204  and  _205
REMARK   78  A    between atoms: _210  and  _212
REMARK   79  A    between atoms: _212  and  _213
REMARK   80  A    between atoms: _212  and  _215
REMARK   81  A    between atoms: _215  and  _216
REMARK   82  A    between atoms: _221  and  _222
REMARK   83  A    between atoms: _224  and  _226
REMARK   84  A    between atoms: _226  and  _227
REMARK   85  A    between atoms: _226  and  _229
REMARK   86  A    between atoms: _229  and  _230
REMARK   87  A    between atoms: _230  and  _231
REMARK   88  A    between atoms: _234  and  _236
REMARK   89  A    between atoms: _236  and  _237
REMARK   90  A    between atoms: _236  and  _239
REMARK   91  A    between atoms: _239  and  _240
REMARK   92  A    between atoms: _243  and  _245
REMARK   93  A    between atoms: _245  and  _246
REMARK   94  A    between atoms: _245  and  _248
REMARK   95  A    between atoms: _248  and  _249
REMARK   96  A    between atoms: _252  and  _254
REMARK   97  A    between atoms: _254  and  _255
REMARK   98  A    between atoms: _254  and  _257
REMARK   99  A    between atoms: _257  and  _258
REMARK  100  A    between atoms: _261  and  _263
REMARK  101  A    between atoms: _263  and  _264
REMARK  102  A    between atoms: _263  and  _266
REMARK  103  A    between atoms: _269  and  _271
REMARK  104  A    between atoms: _271  and  _272
REMARK  105  A    between atoms: _274  and  _276
REMARK  106  A    between atoms: _276  and  _277
REMARK  107  A    between atoms: _276  and  _279
REMARK  108  A    between atoms: _279  and  _280
REMARK  109  A    between atoms: _280  and  _281
REMARK  110  A    between atoms: _283  and  _285
REMARK  111  A    between atoms: _285  and  _286
REMARK  112  A    between atoms: _285  and  _288
REMARK  113  A    between atoms: _288  and  _289
REMARK  114  A    between atoms: _291  and  _293
REMARK  115  A    between atoms: _293  and  _294
REMARK  116  A    between atoms: _293  and  _296
REMARK  117  A    between atoms: _296  and  _297
REMARK  118  A    between atoms: _300  and  _302
REMARK  119  A    between atoms: _302  and  _303
REMARK  120  A    between atoms: _302  and  _305
REMARK  121  A    between atoms: _308  and  _310
REMARK  122  A    between atoms: _310  and  _311
REMARK  123  A    between atoms: _310  and  _313
REMARK  124  A    between atoms: _313  and  _314
REMARK  125  A    between atoms: _317  and  _319
REMARK  126  A    between atoms: _319  and  _320
REMARK  127  A    between atoms: _319  and  _322
REMARK  128  A    between atoms: _322  and  _323
REMARK  129  A    between atoms: _328  and  _330
REMARK  130  A    between atoms: _330  and  _331
REMARK  131  A    between atoms: _330  and  _333
REMARK  132  A    between atoms: _333  and  _334
REMARK  133  A    between atoms: _337  and  _339
REMARK  134  A    between atoms: _339  and  _340
REMARK  135  A    between atoms: _343  and  _345
REMARK  136  A    between atoms: _345  and  _346
REMARK  137  A    between atoms: _349  and  _351
REMARK  138  A    between atoms: _351  and  _352
REMARK  139  A    between atoms: _351  and  _354
REMARK  140  A    between atoms: _354  and  _355
REMARK  141  A    between atoms: _358  and  _360
REMARK  142  A    between atoms: _360  and  _361
REMARK  143  A    between atoms: _360  and  _363
REMARK  144  A    between atoms: _363  and  _364
REMARK  145  A    between atoms: _366  and  _368
REMARK  146  A    between atoms: _368  and  _369
REMARK  147  A    between atoms: _368  and  _371
REMARK  148  A    between atoms: _371  and  _372
REMARK  149  A    between atoms: _377  and  _379
REMARK  150  A    between atoms: _379  and  _380
REMARK  151  A    between atoms: _383  and  _385
REMARK  152  A    between atoms: _385  and  _386
REMARK  153  A    between atoms: _385  and  _388
REMARK  154  A    between atoms: _388  and  _389
REMARK  155  A    between atoms: _389  and  _390
REMARK  156  A    between atoms: _393  and  _395
REMARK  157  A    between atoms: _395  and  _396
REMARK  158  A    between atoms: _395  and  _398
REMARK  159  A    between atoms: _401  and  _403
REMARK  160  A    between atoms: _403  and  _404
REMARK  161  A    between atoms: _403  and  _406
REMARK  162  A    between atoms: _406  and  _407
REMARK  163  A    between atoms: _410  and  _412
REMARK  164  A    between atoms: _412  and  _413
REMARK  165  A    between atoms: _415  and  _417
REMARK  166  A    between atoms: _417  and  _418
REMARK  167  A    between atoms: _417  and  _420
REMARK  168  A    between atoms: _420  and  _421
REMARK  169  A    between atoms: _421  and  _422
REMARK  170  A    between atoms: _425  and  _427
REMARK  171  A    between atoms: _427  and  _428
REMARK  172  A    between atoms: _427  and  _430
REMARK  173  A    between atoms: _430  and  _431
REMARK  174  A    between atoms: _437  and  _439
REMARK  175  A    between atoms: _439  and  _440
REMARK  176  A    between atoms: _439  and  _442
REMARK  177  A    between atoms: _445  and  _447
REMARK  178  A    between atoms: _447  and  _448
REMARK  179  A    between atoms: _447  and  _450
REMARK  180  A    between atoms: _450  and  _451
REMARK                            x       y       z     vdW  Elec       q    Type
REMARK                         _______ _______ _______ _____ _____    ______ ____
ROOT
ATOM      1  CA  ALA A   4      55.044   6.483  44.461  0.00  0.00    +0.149 C 
ATOM      2  CB  ALA A   4      54.166   5.284  44.836  0.00  0.00    +0.031 C 
ENDROOT
BRANCH   1   4
ATOM      3  C   HIS A   3      54.849   8.903  44.336  0.00  0.00    +0.241 C 
ATOM      4  N   ALA A   4      54.283   7.724  44.581  0.00  0.00    -0.297 N 
ATOM      5  H   ALA A   4      53.283   7.685  44.863  0.00  0.00    +0.150 HD
ATOM      6  O   HIS A   3      56.031   9.021  44.007  0.00  0.00    -0.273 OA
BRANCH   3   7
ATOM      7  CA  HIS A   3      53.961  10.135  44.477  0.00  0.00    +0.155 C 
BRANCH   7   9
ATOM      8  C   SER A   2      52.416   9.567  42.698  0.00  0.00    +0.243 C 
ATOM      9  N   HIS A   3      52.613   9.905  43.967  0.00  0.00    -0.297 N 
ATOM     10  H   HIS A   3      51.798  10.007  44.605  0.00  0.00    +0.150 HD
ATOM     11  O   SER A   2      53.340   9.412  41.898  0.00  0.00    -0.273 OA
BRANCH   8  12
ATOM     12  CA  SER A   2      50.968   9.376  42.252  0.00  0.00    +0.178 C 
BRANCH  12  15
ATOM     13  C   LEU A   1      49.823  10.203  40.263  0.00  0.00    +0.238 C 
ATOM     14  O   LEU A   1      48.773  10.387  40.883  0.00  0.00    -0.274 OA
ATOM     15  N   SER A   2      50.916   9.700  40.830  0.00  0.00    -0.295 N 
ATOM     16  H   SER A   2      51.758   9.533  40.243  0.00  0.00    +0.150 HD
BRANCH  13  17
ATOM     17  CA  LEU A   1      49.918  10.541  38.778  0.00  0.00    +0.145 C 
BRANCH  17  18
ATOM     18  N   LEU A   1      48.627  10.294  38.159  0.00  0.00    -0.238 NA
ATOM     19  H   LEU A   1      47.880  11.013  38.243  0.00  0.00    +0.142 HD
ENDBRANCH  17  18
BRANCH  17  20
ATOM     20  CB  LEU A   1      50.305  12.019  38.629  0.00  0.00    +0.026 C 
BRANCH  20  21
ATOM     21  CG  LEU A   1      50.068  12.769  37.311  0.00  0.00    +0.002 C 
ATOM     22  CD2 LEU A   1      50.348  14.252  37.531  0.00  0.00    +0.000 C 
ATOM     23  CD1 LEU A   1      50.953  12.223  36.202  0.00  0.00    +0.000 C 
ENDBRANCH  20  21
ENDBRANCH  17  20
ENDBRANCH  13  17
ENDBRANCH  12  15
BRANCH  12  24
ATOM     24  CB  SER A   2      50.524   7.932  42.508  0.00  0.00    +0.166 C 
BRANCH  24  25
ATOM     25  OG  SER A   2      51.569   7.016  42.237  0.00  0.00    -0.380 OA
ATOM     26  H   SER A   2      51.252   6.094  42.411  0.00  0.00    +0.211 HD
ENDBRANCH  24  25
ENDBRANCH  12  24
ENDBRANCH   8  12
ENDBRANCH   7   9
BRANCH   7  27
ATOM     27  CB  HIS A   3      53.911  10.579  45.941  0.00  0.00    +0.076 C 
BRANCH  27  28
ATOM     28  CG  HIS A   3      55.235  11.028  46.479  0.00  0.00    +0.082 A 
ATOM     29  CD2 HIS A   3      55.930  10.645  47.576  0.00  0.00    +0.115 A 
ATOM     30  NE2 HIS A   3      57.082  11.395  47.610  0.00  0.00    -0.221 NA
ATOM     31  CE1 HIS A   3      57.093  12.210  46.570  0.00  0.00    +0.199 A 
ATOM     32  ND1 HIS A   3      55.990  12.009  45.871  0.00  0.00    -0.227 NA
ENDBRANCH  27  28
ENDBRANCH   7  27
ENDBRANCH   3   7
ENDBRANCH   1   4
BRANCH   1  33
ATOM     33  C   ALA A   4      55.566   6.335  43.032  0.00  0.00    +0.241 C 
ATOM     34  O   ALA A   4      56.697   5.895  42.816  0.00  0.00    -0.273 OA
ATOM     35  N   GLU A   5      54.739   6.700  42.055  0.00  0.00    -0.297 N 
ATOM     36  H   GLU A   5      53.789   7.049  42.293  0.00  0.00    +0.150 HD
BRANCH  35  37
ATOM     37  CA  GLU A   5      55.144   6.619  40.654  0.00  0.00    +0.149 C 
BRANCH  37  38
ATOM     38  C   GLU A   5      56.293   7.596  40.412  0.00  0.00    +0.241 C 
ATOM     39  N   VAL A   6      56.192   8.777  41.015  0.00  0.00    -0.297 N 
ATOM     40  H   VAL A   6      55.354   8.983  41.596  0.00  0.00    +0.150 HD
ATOM     41  O   GLU A   5      57.247   7.293  39.692  0.00  0.00    -0.273 OA
BRANCH  39  42
ATOM     42  CA  VAL A   6      57.233   9.788  40.878  0.00  0.00    +0.149 C 
BRANCH  42  43
ATOM     43  C   VAL A   6      58.554   9.223  41.407  0.00  0.00    +0.241 C 
ATOM     44  N   LEU A   7      58.516   8.634  42.598  0.00  0.00    -0.298 N 
ATOM     45  H   LEU A   7      57.616   8.582  43.116  0.00  0.00    +0.150 HD
ATOM     46  O   VAL A   6      59.584   9.308  40.742  0.00  0.00    -0.273 OA
BRANCH  44  47
ATOM     47  CA  LEU A   7      59.720   8.060  43.189  0.00  0.00    +0.137 C 
BRANCH  47  48
ATOM     48  C   LEU A   7      60.272   6.917  42.339  0.00  0.00    +0.227 C 
ATOM     49  O   LEU A   7      61.480   6.824  42.121  0.00  0.00    -0.286 OA
ENDBRANCH  47  48
BRANCH  47  50
ATOM     50  CB  LEU A   7      59.429   7.566  44.612  0.00  0.00    +0.028 C 
BRANCH  50  51
ATOM     51  CG  LEU A   7      59.016   8.649  45.619  0.00  0.00    +0.002 C 
ATOM     52  CD2 LEU A   7      58.807   8.021  46.992  0.00  0.00    +0.000 C 
ATOM     53  CD1 LEU A   7      60.097   9.732  45.692  0.00  0.00    +0.000 C 
ENDBRANCH  50  51
ENDBRANCH  47  50
ENDBRANCH  44  47
ENDBRANCH  42  43
BRANCH  42  54
ATOM     54  CB  VAL A   6      56.866  11.084  41.658  0.00  0.00    +0.027 C 
ATOM     55  CG2 VAL A   6      58.069  12.027  41.728  0.00  0.00    +0.002 C 
ATOM     56  CG1 VAL A   6      55.697  11.787  40.971  0.00  0.00    +0.002 C 
ENDBRANCH  42  54
ENDBRANCH  39  42
ENDBRANCH  37  38
BRANCH  37  57
ATOM     57  CB  GLU A   5      53.975   6.969  39.729  0.00  0.00    +0.041 C 
BRANCH  57  58
ATOM     58  CG  GLU A   5      52.849   5.939  39.685  0.00  0.00    +0.116 C 
BRANCH  58  59
ATOM     59  CD  GLU A   5      53.266   4.625  39.047  0.00  0.00    +0.365 C 
ATOM     60  OE2 GLU A   5      52.598   3.599  39.301  0.00  0.00    -0.246 OA
ATOM     61  OE1 GLU A   5      54.250   4.618  38.278  0.00  0.00    -0.246 OA
ENDBRANCH  58  59
ENDBRANCH  57  58
ENDBRANCH  37  57
ENDBRANCH  35  37
ENDBRANCH   1  33
TORSDOF 26
REMARK  Name = ../refined-set-2016/1n3i/1n3i_pocket.pdb
REMARK  180 active torsions:
REMARK  status: ('A' for Active; 'I' for Inactive)
REMARK    1  A    between atoms: _1  and  _3
REMARK    2  A    between atoms: _3  and  _4
REMARK    3  A    between atoms: _6  and  _8
REMARK    4  A    between atoms: _8  and  _9
REMARK    5  A    between atoms: _8  and  _11
REMARK    6  A    between atoms: _11  and  _12
REMARK    7  A    between atoms: _14  and  _16
REMARK    8  A    between atoms: _16  and  _17
REMARK    9  A    between atoms: _19  and  _21
REMARK   10  A    between atoms: _21  and  _22
REMARK   11  A    between atoms: _25  and  _27
REMARK   12  A    between atoms: _27  and  _28
REMARK   13  A    between atoms: _31  and  _33
REMARK   14  A    between atoms: _33  and  _34
REMARK   15  A    between atoms: _33  and  _36
REMARK   16  A    between atoms: _36  and  _37
REMARK   17  A    between atoms: _42  and  _44
REMARK   18  A    between atoms: _44  and  _45
REMARK   19  A    between atoms: _44  and  _47
REMARK   20  A    between atoms: _47  and  _48
REMARK   21  A    between atoms: _48  and  _49
REMARK   22  A    between atoms: _49  and  _50
REMARK   23  A    between atoms: _59  and  _61
REMARK   24  A    between atoms: _61  and  _62
REMARK   25  A    between atoms: _61  and  _64
REMARK   26  A    between atoms: _64  and  _65
REMARK   27  A    between atoms: _68  and  _70
REMARK   28  A    between atoms: _70  and  _71
REMARK   29  A    between atoms: _70  and  _73
REMARK   30  A    between atoms: _73  and  _74
REMARK   31  A    between atoms: _79  and  _81
REMARK   32  A    between atoms: _81  and  _82
REMARK   33  A    between atoms: _85  and  _87
REMARK   34  A    between atoms: _87  and  _88
REMARK   35  A    between atoms: _87  and  _90
REMARK   36  A    between atoms: _90  and  _91
REMARK   37  A    between atoms: _96  and  _97
REMARK   38  A    between atoms: _99  and  _101
REMARK   39  A    between atoms: _101  and  _102
REMARK   40  A    between atoms: _101  and  _104
REMARK   41  A    between atoms: _104  and  _105
REMARK   42  A    between atoms: _105  and  _106
REMARK   43  A    between atoms: _109  and  _111
REMARK   44  A    between atoms: _111  and  _112
REMARK   45  A    between atoms: _111  and  _114
REMARK   46  A    between atoms: _114  and  _115
REMARK   47  A    between atoms: _120  and  _122
REMARK   48  A    between atoms: _122  and  _123
REMARK   49  A    between atoms: _126  and  _128
REMARK   50  A    between atoms: _128  and  _129
REMARK   51  A    between atoms: _132  and  _134
REMARK   52  A    between atoms: _134  and  _135
REMARK   53  A    between atoms: _137  and  _139
REMARK   54  A    between atoms: _139  and  _140
REMARK   55  A    between atoms: _142  and  _144
REMARK   56  A    between atoms: _144  and  _145
REMARK   57  A    between atoms: _144  and  _147
REMARK   58  A    between atoms: _147  and  _148
REMARK   59  A    between atoms: _151  and  _153
REMARK   60  A    between atoms: _153  and  _154
REMARK   61  A    between atoms: _153  and  _156
REMARK   62  A    between atoms: _156  and  _157
REMARK   63  A    between atoms: _162  and  _163
REMARK   64  A    between atoms: _165  and  _167
REMARK   65  A    between atoms: _167  and  _168
REMARK   66  A    between atoms: _171  and  _173
REMARK   67  A    between atoms: _173  and  _174
REMARK   68  A    between atoms: _173  and  _176
REMARK   69  A    between atoms: _176  and  _177
REMARK   70  A    between atoms: _181  and  _182
REMARK   71  A    between atoms: _187  and  _189
REMARK   72  A    between atoms: _189  and  _190
REMARK   73  A    between atoms: _193  and  _194
REMARK   74  A    between atoms: _199  and  _201
REMARK   75  A    between atoms: _201  and  _202
REMARK   76  A    between atoms: _201  and  _204
REMARK   77  A    between atoms: _204  and  _205
REMARK   78  A    between atoms: _210  and  _212
REMARK   79  A    between atoms: _212  and  _213
REMARK   80  A    between atoms: _212  and  _215
REMARK   81  A    between atoms: _215  and  _216
REMARK   82  A    between atoms: _221  and  _222
REMARK   83  A    between atoms: _224  and  _226
REMARK   84  A    between atoms: _226  and  _227
REMARK   85  A    between atoms: _226  and  _229
REMARK   86  A    between atoms: _229  and  _230
REMARK   87  A    between atoms: _230  and  _231
REMARK   88  A    between atoms: _234  and  _236
REMARK   89  A    between atoms: _236  and  _237
REMARK   90  A    between atoms: _236  and  _239
REMARK   91  A    between atoms: _239  and  _240
REMARK   92  A    between atoms: _243  and  _245
REMARK   93  A    between atoms: _245  and  _246
REMARK   94  A    between atoms: _245  and  _248
REMARK   95  A    between atoms: _248  and  _249
REMARK   96  A    between atoms: _252  and  _254
REMARK   97  A    between atoms: _254  and  _255
REMARK   98  A    between atoms: _254  and  _257
REMARK   99  A    between atoms: _257  and  _258
REMARK  100  A    between atoms: _261  and  _263
REMARK  101  A    between atoms: _263  and  _264
REMARK  102  A    between atoms: _263  and  _266
REMARK  103  A    between atoms: _269  and  _271
REMARK  104  A    between atoms: _271  and  _272
REMARK  105  A    between atoms: _274  and  _276
REMARK  106  A    between atoms: _276  and  _277
REMARK  107  A    between atoms: _276  and  _279
REMARK  108  A    between atoms: _279  and  _280
REMARK  109  A    between atoms: _280  and  _281
REMARK  110  A    between atoms: _283  and  _285
REMARK  111  A    between atoms: _285  and  _286
REMARK  112  A    between atoms: _285  and  _288
REMARK  113  A    between atoms: _288  and  _289
REMARK  114  A    between atoms: _291  and  _293
REMARK  115  A    between atoms: _293  and  _294
REMARK  116  A    between atoms: _293  and  _296
REMARK  117  A    between atoms: _296  and  _297
REMARK  118  A    between atoms: _300  and  _302
REMARK  119  A    between atoms: _302  and  _303
REMARK  120  A    between atoms: _302  and  _305
REMARK  121  A    between atoms: _308  and  _310
REMARK  122  A    between atoms: _310  and  _311
REMARK  123  A    between atoms: _310  and  _313
REMARK  124  A    between atoms: _313  and  _314
REMARK  125  A    between atoms: _317  and  _319
REMARK  126  A    between atoms: _319  and  _320
REMARK  127  A    between atoms: _319  and  _322
REMARK  128  A    between atoms: _322  and  _323
REMARK  129  A    between atoms: _328  and  _330
REMARK  130  A    between atoms: _330  and  _331
REMARK  131  A    between atoms: _330  and  _333
REMARK  132  A    between atoms: _333  and  _334
REMARK  133  A    between atoms: _337  and  _339
REMARK  134  A    between atoms: _339  and  _340
REMARK  135  A    between atoms: _343  and  _345
REMARK  136  A    between atoms: _345  and  _346
REMARK  137  A    between atoms: _349  and  _351
REMARK  138  A    between atoms: _351  and  _352
REMARK  139  A    between atoms: _351  and  _354
REMARK  140  A    between atoms: _354  and  _355
REMARK  141  A    between atoms: _358  and  _360
REMARK  142  A    between atoms: _360  and  _361
REMARK  143  A    between atoms: _360  and  _363
REMARK  144  A    between atoms: _363  and  _364
REMARK  145  A    between atoms: _366  and  _368
REMARK  146  A    between atoms: _368  and  _369
REMARK  147  A    between atoms: _368  and  _371
REMARK  148  A    between atoms: _371  and  _372
REMARK  149  A    between atoms: _377  and  _379
REMARK  150  A    between atoms: _379  and  _380
REMARK  151  A    between atoms: _383  and  _385
REMARK  152  A    between atoms: _385  and  _386
REMARK  153  A    between atoms: _385  and  _388
REMARK  154  A    between atoms: _388  and  _389
REMARK  155  A    between atoms: _389  and  _390
REMARK  156  A    between atoms: _393  and  _395
REMARK  157  A    between atoms: _395  and  _396
REMARK  158  A    between atoms: _395  and  _398
REMARK  159  A    between atoms: _401  and  _403
REMARK  160  A    between atoms: _403  and  _404
REMARK  161  A    between atoms: _403  and  _406
REMARK  162  A    between atoms: _406  and  _407
REMARK  163  A    between atoms: _410  and  _412
REMARK  164  A    between atoms: _412  and  _413
REMARK  165  A    between atoms: _415  and  _417
REMARK  166  A    between atoms: _417  and  _418
REMARK  167  A    between atoms: _417  and  _420
REMARK  168  A    between atoms: _420  and  _421
REMARK  169  A    between atoms: _421  and  _422
REMARK  170  A    between atoms: _425  and  _427
REMARK  171  A    between atoms: _427  and  _428
REMARK  172  A    between atoms: _427  and  _430
REMARK  173  A    between atoms: _430  and  _431
REMARK  174  A    between atoms: _437  and  _439
REMARK  175  A    between atoms: _439  and  _440
REMARK  176  A    between atoms: _439  and  _442
REMARK  177  A    between atoms: _445  and  _447
REMARK  178  A    between atoms: _447  and  _448
REMARK  179  A    between atoms: _447  and  _450
REMARK  180  A    between atoms: _450  and  _451
REMARK                            x       y       z     vdW  Elec       q    Type
REMARK                         _______ _______ _______ _____ _____    ______ ____
ROOT
ATOM      1  CA  PHE A   3      49.403  14.537  46.269  0.00  0.00    +0.153 C 
ENDROOT
BRANCH   1   4
ATOM      2  C   GLU A   2      48.367  15.128  48.401  0.00  0.00    +0.241 C 
ATOM      3  O   GLU A   2      47.822  16.130  47.936  0.00  0.00    -0.273 OA
ATOM      4  N   PHE A   3      49.130  14.311  47.682  0.00  0.00    -0.297 N 
ATOM      5  H   PHE A   3      49.548  13.479  48.146  0.00  0.00    +0.150 HD
BRANCH   2   6
ATOM      6  CA  GLU A   2      48.197  14.743  49.864  0.00  0.00    +0.149 C 
BRANCH   6   8
ATOM      7  C   GLY A   1      50.309  13.902  50.685  0.00  0.00    +0.240 C 
ATOM      8  N   GLU A   2      49.452  14.911  50.583  0.00  0.00    -0.297 N 
ATOM      9  H   GLU A   2      49.679  15.827  51.020  0.00  0.00    +0.150 HD
ATOM     10  O   GLY A   1      50.088  12.793  50.192  0.00  0.00    -0.274 OA
BRANCH   7  11
ATOM     11  CA  GLY A   1      51.592  14.160  51.447  0.00  0.00    +0.169 C 
BRANCH  11  12
ATOM     12  N   GLY A   1      51.872  15.547  51.769  0.00  0.00    -0.236 NA
ATOM     13  H   GLY A   1      52.476  16.109  51.135  0.00  0.00    +0.142 HD
ENDBRANCH  11  12
ENDBRANCH   7  11
ENDBRANCH   6   8
BRANCH   6  14
ATOM     14  CB  GLU A   2      47.098  15.585  50.511  0.00  0.00    +0.041 C 
BRANCH  14  15
ATOM     15  CG  GLU A   2      46.848  15.235  51.965  0.00  0.00    +0.116 C 
BRANCH  15  16
ATOM     16  CD  GLU A   2      45.594  15.883  52.509  0.00  0.00    +0.365 C 
ATOM     17  OE2 GLU A   2      44.649  15.140  52.847  0.00  0.00    -0.246 OA
ATOM     18  OE1 GLU A   2      45.552  17.128  52.592  0.00  0.00    -0.246 OA
ENDBRANCH  15  16
ENDBRANCH  14  15
ENDBRANCH   6  14
ENDBRANCH   2   6
ENDBRANCH   1   4
BRANCH   1  19
ATOM     19  C   PHE A   3      48.280  13.938  45.431  0.00  0.00    +0.241 C 
ATOM     20  N   VAL A   4      47.198  14.697  45.293  0.00  0.00    -0.297 N 
ATOM     21  H   VAL A   4      47.185  15.642  45.726  0.00  0.00    +0.150 HD
ATOM     22  O   PHE A   3      48.390  12.825  44.918  0.00  0.00    -0.273 OA
BRANCH  20  23
ATOM     23  CA  VAL A   4      46.029  14.243  44.552  0.00  0.00    +0.149 C 
BRANCH  23  24
ATOM     24  C   VAL A   4      46.062  14.545  43.061  0.00  0.00    +0.241 C 
ATOM     25  O   VAL A   4      46.375  15.660  42.643  0.00  0.00    -0.273 OA
ATOM     26  N   ASP A   5      45.730  13.535  42.266  0.00  0.00    -0.298 N 
ATOM     27  H   ASP A   5      45.488  12.617  42.691  0.00  0.00    +0.150 HD
BRANCH  26  28
ATOM     28  CA  ASP A   5      45.695  13.673  40.820  0.00  0.00    +0.148 C 
BRANCH  28  29
ATOM     29  C   ASP A   5      44.397  14.373  40.443  0.00  0.00    +0.227 C 
ATOM     30  O   ASP A   5      43.317  13.965  40.886  0.00  0.00    -0.286 OA
ENDBRANCH  28  29
BRANCH  28  31
ATOM     31  CB  ASP A   5      45.736  12.302  40.154  0.00  0.00    +0.142 C 
BRANCH  31  32
ATOM     32  CG  ASP A   5      45.607  12.389  38.649  0.00  0.00    +0.367 C 
ATOM     33  OD2 ASP A   5      44.464  12.357  38.150  0.00  0.00    -0.246 OA
ATOM     34  OD1 ASP A   5      46.642  12.509  37.970  0.00  0.00    -0.246 OA
ENDBRANCH  31  32
ENDBRANCH  28  31
ENDBRANCH  26  28
ENDBRANCH  23  24
BRANCH  23  35
ATOM     35  CB  VAL A   4      44.748  14.855  45.146  0.00  0.00    +0.027 C 
ATOM     36  CG2 VAL A   4      44.720  14.609  46.639  0.00  0.00    +0.002 C 
ATOM     37  CG1 VAL A   4      43.513  14.259  44.470  0.00  0.00    +0.002 C 
ENDBRANCH  23  35
ENDBRANCH  20  23
ENDBRANCH   1  19
BRANCH   1  38
ATOM     38  CB  PHE A   3      50.748  13.904  45.920  0.00  0.00    +0.055 C 
BRANCH  38  39
ATOM     39  CG  PHE A   3      51.865  14.357  46.815  0.00  0.00    -0.020 A 
ATOM     40  CD2 PHE A   3      52.576  13.440  47.587  0.00  0.00    -0.004 A 
ATOM     41  CE2 PHE A   3      53.607  13.860  48.431  0.00  0.00    -0.000 A 
ATOM     42  CZ  PHE A   3      53.934  15.217  48.505  0.00  0.00    -0.000 A 
ATOM     43  CE1 PHE A   3      53.226  16.144  47.734  0.00  0.00    -0.000 A 
ATOM     44  CD1 PHE A   3      52.199  15.710  46.896  0.00  0.00    -0.004 A 
ENDBRANCH  38  39
ENDBRANCH   1  38
TORSDOF 18
REMARK  Name = ../refined-set-2016/1n3i/1n3i_pocket.pdb
REMARK  180 active torsions:
REMARK  status: ('A' for Active; 'I' for Inactive)
REMARK    1  A    between atoms: _1  and  _3
REMARK    2  A    between atoms: _3  and  _4
REMARK    3  A    between atoms: _6  and  _8
REMARK    4  A    between atoms: _8  and  _9
REMARK    5  A    between atoms: _8  and  _11
REMARK    6  A    between atoms: _11  and  _12
REMARK    7  A    between atoms: _14  and  _16
REMARK    8  A    between atoms: _16  and  _17
REMARK    9  A    between atoms: _19  and  _21
REMARK   10  A    between atoms: _21  and  _22
REMARK   11  A    between atoms: _25  and  _27
REMARK   12  A    between atoms: _27  and  _28
REMARK   13  A    between atoms: _31  and  _33
REMARK   14  A    between atoms: _33  and  _34
REMARK   15  A    between atoms: _33  and  _36
REMARK   16  A    between atoms: _36  and  _37
REMARK   17  A    between atoms: _42  and  _44
REMARK   18  A    between atoms: _44  and  _45
REMARK   19  A    between atoms: _44  and  _47
REMARK   20  A    between atoms: _47  and  _48
REMARK   21  A    between atoms: _48  and  _49
REMARK   22  A    between atoms: _49  and  _50
REMARK   23  A    between atoms: _59  and  _61
REMARK   24  A    between atoms: _61  and  _62
REMARK   25  A    between atoms: _61  and  _64
REMARK   26  A    between atoms: _64  and  _65
REMARK   27  A    between atoms: _68  and  _70
REMARK   28  A    between atoms: _70  and  _71
REMARK   29  A    between atoms: _70  and  _73
REMARK   30  A    between atoms: _73  and  _74
REMARK   31  A    between atoms: _79  and  _81
REMARK   32  A    between atoms: _81  and  _82
REMARK   33  A    between atoms: _85  and  _87
REMARK   34  A    between atoms: _87  and  _88
REMARK   35  A    between atoms: _87  and  _90
REMARK   36  A    between atoms: _90  and  _91
REMARK   37  A    between atoms: _96  and  _97
REMARK   38  A    between atoms: _99  and  _101
REMARK   39  A    between atoms: _101  and  _102
REMARK   40  A    between atoms: _101  and  _104
REMARK   41  A    between atoms: _104  and  _105
REMARK   42  A    between atoms: _105  and  _106
REMARK   43  A    between atoms: _109  and  _111
REMARK   44  A    between atoms: _111  and  _112
REMARK   45  A    between atoms: _111  and  _114
REMARK   46  A    between atoms: _114  and  _115
REMARK   47  A    between atoms: _120  and  _122
REMARK   48  A    between atoms: _122  and  _123
REMARK   49  A    between atoms: _126  and  _128
REMARK   50  A    between atoms: _128  and  _129
REMARK   51  A    between atoms: _132  and  _134
REMARK   52  A    between atoms: _134  and  _135
REMARK   53  A    between atoms: _137  and  _139
REMARK   54  A    between atoms: _139  and  _140
REMARK   55  A    between atoms: _142  and  _144
REMARK   56  A    between atoms: _144  and  _145
REMARK   57  A    between atoms: _144  and  _147
REMARK   58  A    between atoms: _147  and  _148
REMARK   59  A    between atoms: _151  and  _153
REMARK   60  A    between atoms: _153  and  _154
REMARK   61  A    between atoms: _153  and  _156
REMARK   62  A    between atoms: _156  and  _157
REMARK   63  A    between atoms: _162  and  _163
REMARK   64  A    between atoms: _165  and  _167
REMARK   65  A    between atoms: _167  and  _168
REMARK   66  A    between atoms: _171  and  _173
REMARK   67  A    between atoms: _173  and  _174
REMARK   68  A    between atoms: _173  and  _176
REMARK   69  A    between atoms: _176  and  _177
REMARK   70  A    between atoms: _181  and  _182
REMARK   71  A    between atoms: _187  and  _189
REMARK   72  A    between atoms: _189  and  _190
REMARK   73  A    between atoms: _193  and  _194
REMARK   74  A    between atoms: _199  and  _201
REMARK   75  A    between atoms: _201  and  _202
REMARK   76  A    between atoms: _201  and  _204
REMARK   77  A    between atoms: _204  and  _205
REMARK   78  A    between atoms: _210  and  _212
REMARK   79  A    between atoms: _212  and  _213
REMARK   80  A    between atoms: _212  and  _215
REMARK   81  A    between atoms: _215  and  _216
REMARK   82  A    between atoms: _221  and  _222
REMARK   83  A    between atoms: _224  and  _226
REMARK   84  A    between atoms: _226  and  _227
REMARK   85  A    between atoms: _226  and  _229
REMARK   86  A    between atoms: _229  and  _230
REMARK   87  A    between atoms: _230  and  _231
REMARK   88  A    between atoms: _234  and  _236
REMARK   89  A    between atoms: _236  and  _237
REMARK   90  A    between atoms: _236  and  _239
REMARK   91  A    between atoms: _239  and  _240
REMARK   92  A    between atoms: _243  and  _245
REMARK   93  A    between atoms: _245  and  _246
REMARK   94  A    between atoms: _245  and  _248
REMARK   95  A    between atoms: _248  and  _249
REMARK   96  A    between atoms: _252  and  _254
REMARK   97  A    between atoms: _254  and  _255
REMARK   98  A    between atoms: _254  and  _257
REMARK   99  A    between atoms: _257  and  _258
REMARK  100  A    between atoms: _261  and  _263
REMARK  101  A    between atoms: _263  and  _264
REMARK  102  A    between atoms: _263  and  _266
REMARK  103  A    between atoms: _269  and  _271
REMARK  104  A    between atoms: _271  and  _272
REMARK  105  A    between atoms: _274  and  _276
REMARK  106  A    between atoms: _276  and  _277
REMARK  107  A    between atoms: _276  and  _279
REMARK  108  A    between atoms: _279  and  _280
REMARK  109  A    between atoms: _280  and  _281
REMARK  110  A    between atoms: _283  and  _285
REMARK  111  A    between atoms: _285  and  _286
REMARK  112  A    between atoms: _285  and  _288
REMARK  113  A    between atoms: _288  and  _289
REMARK  114  A    between atoms: _291  and  _293
REMARK  115  A    between atoms: _293  and  _294
REMARK  116  A    between atoms: _293  and  _296
REMARK  117  A    between atoms: _296  and  _297
REMARK  118  A    between atoms: _300  and  _302
REMARK  119  A    between atoms: _302  and  _303
REMARK  120  A    between atoms: _302  and  _305
REMARK  121  A    between atoms: _308  and  _310
REMARK  122  A    between atoms: _310  and  _311
REMARK  123  A    between atoms: _310  and  _313
REMARK  124  A    between atoms: _313  and  _314
REMARK  125  A    between atoms: _317  and  _319
REMARK  126  A    between atoms: _319  and  _320
REMARK  127  A    between atoms: _319  and  _322
REMARK  128  A    between atoms: _322  and  _323
REMARK  129  A    between atoms: _328  and  _330
REMARK  130  A    between atoms: _330  and  _331
REMARK  131  A    between atoms: _330  and  _333
REMARK  132  A    between atoms: _333  and  _334
REMARK  133  A    between atoms: _337  and  _339
REMARK  134  A    between atoms: _339  and  _340
REMARK  135  A    between atoms: _343  and  _345
REMARK  136  A    between atoms: _345  and  _346
REMARK  137  A    between atoms: _349  and  _351
REMARK  138  A    between atoms: _351  and  _352
REMARK  139  A    between atoms: _351  and  _354
REMARK  140  A    between atoms: _354  and  _355
REMARK  141  A    between atoms: _358  and  _360
REMARK  142  A    between atoms: _360  and  _361
REMARK  143  A    between atoms: _360  and  _363
REMARK  144  A    between atoms: _363  and  _364
REMARK  145  A    between atoms: _366  and  _368
REMARK  146  A    between atoms: _368  and  _369
REMARK  147  A    between atoms: _368  and  _371
REMARK  148  A    between atoms: _371  and  _372
REMARK  149  A    between atoms: _377  and  _379
REMARK  150  A    between atoms: _379  and  _380
REMARK  151  A    between atoms: _383  and  _385
REMARK  152  A    between atoms: _385  and  _386
REMARK  153  A    between atoms: _385  and  _388
REMARK  154  A    between atoms: _388  and  _389
REMARK  155  A    between atoms: _389  and  _390
REMARK  156  A    between atoms: _393  and  _395
REMARK  157  A    between atoms: _395  and  _396
REMARK  158  A    between atoms: _395  and  _398
REMARK  159  A    between atoms: _401  and  _403
REMARK  160  A    between atoms: _403  and  _404
REMARK  161  A    between atoms: _403  and  _406
REMARK  162  A    between atoms: _406  and  _407
REMARK  163  A    between atoms: _410  and  _412
REMARK  164  A    between atoms: _412  and  _413
REMARK  165  A    between atoms: _415  and  _417
REMARK  166  A    between atoms: _417  and  _418
REMARK  167  A    between atoms: _417  and  _420
REMARK  168  A    between atoms: _420  and  _421
REMARK  169  A    between atoms: _421  and  _422
REMARK  170  A    between atoms: _425  and  _427
REMARK  171  A    between atoms: _427  and  _428
REMARK  172  A    between atoms: _427  and  _430
REMARK  173  A    between atoms: _430  and  _431
REMARK  174  A    between atoms: _437  and  _439
REMARK  175  A    between atoms: _439  and  _440
REMARK  176  A    between atoms: _439  and  _442
REMARK  177  A    between atoms: _445  and  _447
REMARK  178  A    between atoms: _447  and  _448
REMARK  179  A    between atoms: _447  and  _450
REMARK  180  A    between atoms: _450  and  _451
REMARK                            x       y       z     vdW  Elec       q    Type
REMARK                         _______ _______ _______ _____ _____    ______ ____
ROOT
ATOM      1  O   HOH     1      49.522  22.248  41.403  0.00  0.00    +0.000 OA
ENDROOT
TORSDOF 0
REMARK  Name = ../refined-set-2016/1n3i/1n3i_pocket.pdb
REMARK  180 active torsions:
REMARK  status: ('A' for Active; 'I' for Inactive)
REMARK    1  A    between atoms: _1  and  _3
REMARK    2  A    between atoms: _3  and  _4
REMARK    3  A    between atoms: _6  and  _8
REMARK    4  A    between atoms: _8  and  _9
REMARK    5  A    between atoms: _8  and  _11
REMARK    6  A    between atoms: _11  and  _12
REMARK    7  A    between atoms: _14  and  _16
REMARK    8  A    between atoms: _16  and  _17
REMARK    9  A    between atoms: _19  and  _21
REMARK   10  A    between atoms: _21  and  _22
REMARK   11  A    between atoms: _25  and  _27
REMARK   12  A    between atoms: _27  and  _28
REMARK   13  A    between atoms: _31  and  _33
REMARK   14  A    between atoms: _33  and  _34
REMARK   15  A    between atoms: _33  and  _36
REMARK   16  A    between atoms: _36  and  _37
REMARK   17  A    between atoms: _42  and  _44
REMARK   18  A    between atoms: _44  and  _45
REMARK   19  A    between atoms: _44  and  _47
REMARK   20  A    between atoms: _47  and  _48
REMARK   21  A    between atoms: _48  and  _49
REMARK   22  A    between atoms: _49  and  _50
REMARK   23  A    between atoms: _59  and  _61
REMARK   24  A    between atoms: _61  and  _62
REMARK   25  A    between atoms: _61  and  _64
REMARK   26  A    between atoms: _64  and  _65
REMARK   27  A    between atoms: _68  and  _70
REMARK   28  A    between atoms: _70  and  _71
REMARK   29  A    between atoms: _70  and  _73
REMARK   30  A    between atoms: _73  and  _74
REMARK   31  A    between atoms: _79  and  _81
REMARK   32  A    between atoms: _81  and  _82
REMARK   33  A    between atoms: _85  and  _87
REMARK   34  A    between atoms: _87  and  _88
REMARK   35  A    between atoms: _87  and  _90
REMARK   36  A    between atoms: _90  and  _91
REMARK   37  A    between atoms: _96  and  _97
REMARK   38  A    between atoms: _99  and  _101
REMARK   39  A    between atoms: _101  and  _102
REMARK   40  A    between atoms: _101  and  _104
REMARK   41  A    between atoms: _104  and  _105
REMARK   42  A    between atoms: _105  and  _106
REMARK   43  A    between atoms: _109  and  _111
REMARK   44  A    between atoms: _111  and  _112
REMARK   45  A    between atoms: _111  and  _114
REMARK   46  A    between atoms: _114  and  _115
REMARK   47  A    between atoms: _120  and  _122
REMARK   48  A    between atoms: _122  and  _123
REMARK   49  A    between atoms: _126  and  _128
REMARK   50  A    between atoms: _128  and  _129
REMARK   51  A    between atoms: _132  and  _134
REMARK   52  A    between atoms: _134  and  _135
REMARK   53  A    between atoms: _137  and  _139
REMARK   54  A    between atoms: _139  and  _140
REMARK   55  A    between atoms: _142  and  _144
REMARK   56  A    between atoms: _144  and  _145
REMARK   57  A    between atoms: _144  and  _147
REMARK   58  A    between atoms: _147  and  _148
REMARK   59  A    between atoms: _151  and  _153
REMARK   60  A    between atoms: _153  and  _154
REMARK   61  A    between atoms: _153  and  _156
REMARK   62  A    between atoms: _156  and  _157
REMARK   63  A    between atoms: _162  and  _163
REMARK   64  A    between atoms: _165  and  _167
REMARK   65  A    between atoms: _167  and  _168
REMARK   66  A    between atoms: _171  and  _173
REMARK   67  A    between atoms: _173  and  _174
REMARK   68  A    between atoms: _173  and  _176
REMARK   69  A    between atoms: _176  and  _177
REMARK   70  A    between atoms: _181  and  _182
REMARK   71  A    between atoms: _187  and  _189
REMARK   72  A    between atoms: _189  and  _190
REMARK   73  A    between atoms: _193  and  _194
REMARK   74  A    between atoms: _199  and  _201
REMARK   75  A    between atoms: _201  and  _202
REMARK   76  A    between atoms: _201  and  _204
REMARK   77  A    between atoms: _204  and  _205
REMARK   78  A    between atoms: _210  and  _212
REMARK   79  A    between atoms: _212  and  _213
REMARK   80  A    between atoms: _212  and  _215
REMARK   81  A    between atoms: _215  and  _216
REMARK   82  A    between atoms: _221  and  _222
REMARK   83  A    between atoms: _224  and  _226
REMARK   84  A    between atoms: _226  and  _227
REMARK   85  A    between atoms: _226  and  _229
REMARK   86  A    between atoms: _229  and  _230
REMARK   87  A    between atoms: _230  and  _231
REMARK   88  A    between atoms: _234  and  _236
REMARK   89  A    between atoms: _236  and  _237
REMARK   90  A    between atoms: _236  and  _239
REMARK   91  A    between atoms: _239  and  _240
REMARK   92  A    between atoms: _243  and  _245
REMARK   93  A    between atoms: _245  and  _246
REMARK   94  A    between atoms: _245  and  _248
REMARK   95  A    between atoms: _248  and  _249
REMARK   96  A    between atoms: _252  and  _254
REMARK   97  A    between atoms: _254  and  _255
REMARK   98  A    between atoms: _254  and  _257
REMARK   99  A    between atoms: _257  and  _258
REMARK  100  A    between atoms: _261  and  _263
REMARK  101  A    between atoms: _263  and  _264
REMARK  102  A    between atoms: _263  and  _266
REMARK  103  A    between atoms: _269  and  _271
REMARK  104  A    between atoms: _271  and  _272
REMARK  105  A    between atoms: _274  and  _276
REMARK  106  A    between atoms: _276  and  _277
REMARK  107  A    between atoms: _276  and  _279
REMARK  108  A    between atoms: _279  and  _280
REMARK  109  A    between atoms: _280  and  _281
REMARK  110  A    between atoms: _283  and  _285
REMARK  111  A    between atoms: _285  and  _286
REMARK  112  A    between atoms: _285  and  _288
REMARK  113  A    between atoms: _288  and  _289
REMARK  114  A    between atoms: _291  and  _293
REMARK  115  A    between atoms: _293  and  _294
REMARK  116  A    between atoms: _293  and  _296
REMARK  117  A    between atoms: _296  and  _297
REMARK  118  A    between atoms: _300  and  _302
REMARK  119  A    between atoms: _302  and  _303
REMARK  120  A    between atoms: _302  and  _305
REMARK  121  A    between atoms: _308  and  _310
REMARK  122  A    between atoms: _310  and  _311
REMARK  123  A    between atoms: _310  and  _313
REMARK  124  A    between atoms: _313  and  _314
REMARK  125  A    between atoms: _317  and  _319
REMARK  126  A    between atoms: _319  and  _320
REMARK  127  A    between atoms: _319  and  _322
REMARK  128  A    between atoms: _322  and  _323
REMARK  129  A    between atoms: _328  and  _330
REMARK  130  A    between atoms: _330  and  _331
REMARK  131  A    between atoms: _330  and  _333
REMARK  132  A    between atoms: _333  and  _334
REMARK  133  A    between atoms: _337  and  _339
REMARK  134  A    between atoms: _339  and  _340
REMARK  135  A    between atoms: _343  and  _345
REMARK  136  A    between atoms: _345  and  _346
REMARK  137  A    between atoms: _349  and  _351
REMARK  138  A    between atoms: _351  and  _352
REMARK  139  A    between atoms: _351  and  _354
REMARK  140  A    between atoms: _354  and  _355
REMARK  141  A    between atoms: _358  and  _360
REMARK  142  A    between atoms: _360  and  _361
REMARK  143  A    between atoms: _360  and  _363
REMARK  144  A    between atoms: _363  and  _364
REMARK  145  A    between atoms: _366  and  _368
REMARK  146  A    between atoms: _368  and  _369
REMARK  147  A    between atoms: _368  and  _371
REMARK  148  A    between atoms: _371  and  _372
REMARK  149  A    between atoms: _377  and  _379
REMARK  150  A    between atoms: _379  and  _380
REMARK  151  A    between atoms: _383  and  _385
REMARK  152  A    between atoms: _385  and  _386
REMARK  153  A    between atoms: _385  and  _388
REMARK  154  A    between atoms: _388  and  _389
REMARK  155  A    between atoms: _389  and  _390
REMARK  156  A    between atoms: _393  and  _395
REMARK  157  A    between atoms: _395  and  _396
REMARK  158  A    between atoms: _395  and  _398
REMARK  159  A    between atoms: _401  and  _403
REMARK  160  A    between atoms: _403  and  _404
REMARK  161  A    between atoms: _403  and  _406
REMARK  162  A    between atoms: _406  and  _407
REMARK  163  A    between atoms: _410  and  _412
REMARK  164  A    between atoms: _412  and  _413
REMARK  165  A    between atoms: _415  and  _417
REMARK  166  A    between atoms: _417  and  _418
REMARK  167  A    between atoms: _417  and  _420
REMARK  168  A    between atoms: _420  and  _421
REMARK  169  A    between atoms: _421  and  _422
REMARK  170  A    between atoms: _425  and  _427
REMARK  171  A    between atoms: _427  and  _428
REMARK  172  A    between atoms: _427  and  _430
REMARK  173  A    between atoms: _430  and  _431
REMARK  174  A    between atoms: _437  and  _439
REMARK  175  A    between atoms: _439  and  _440
REMARK  176  A    between atoms: _439  and  _442
REMARK  177  A    between atoms: _445  and  _447
REMARK  178  A    between atoms: _447  and  _448
REMARK  179  A    between atoms: _447  and  _450
REMARK  180  A    between atoms: _450  and  _451
REMARK                            x       y       z     vdW  Elec       q    Type
REMARK                         _______ _______ _______ _____ _____    ______ ____
ROOT
ATOM      1  O   HOH     1      60.904  23.505  48.685  0.00  0.00    +0.000 OA
ENDROOT
TORSDOF 0
REMARK  Name = ../refined-set-2016/1n3i/1n3i_pocket.pdb
REMARK  180 active torsions:
REMARK  status: ('A' for Active; 'I' for Inactive)
REMARK    1  A    between atoms: _1  and  _3
REMARK    2  A    between atoms: _3  and  _4
REMARK    3  A    between atoms: _6  and  _8
REMARK    4  A    between atoms: _8  and  _9
REMARK    5  A    between atoms: _8  and  _11
REMARK    6  A    between atoms: _11  and  _12
REMARK    7  A    between atoms: _14  and  _16
REMARK    8  A    between atoms: _16  and  _17
REMARK    9  A    between atoms: _19  and  _21
REMARK   10  A    between atoms: _21  and  _22
REMARK   11  A    between atoms: _25  and  _27
REMARK   12  A    between atoms: _27  and  _28
REMARK   13  A    between atoms: _31  and  _33
REMARK   14  A    between atoms: _33  and  _34
REMARK   15  A    between atoms: _33  and  _36
REMARK   16  A    between atoms: _36  and  _37
REMARK   17  A    between atoms: _42  and  _44
REMARK   18  A    between atoms: _44  and  _45
REMARK   19  A    between atoms: _44  and  _47
REMARK   20  A    between atoms: _47  and  _48
REMARK   21  A    between atoms: _48  and  _49
REMARK   22  A    between atoms: _49  and  _50
REMARK   23  A    between atoms: _59  and  _61
REMARK   24  A    between atoms: _61  and  _62
REMARK   25  A    between atoms: _61  and  _64
REMARK   26  A    between atoms: _64  and  _65
REMARK   27  A    between atoms: _68  and  _70
REMARK   28  A    between atoms: _70  and  _71
REMARK   29  A    between atoms: _70  and  _73
REMARK   30  A    between atoms: _73  and  _74
REMARK   31  A    between atoms: _79  and  _81
REMARK   32  A    between atoms: _81  and  _82
REMARK   33  A    between atoms: _85  and  _87
REMARK   34  A    between atoms: _87  and  _88
REMARK   35  A    between atoms: _87  and  _90
REMARK   36  A    between atoms: _90  and  _91
REMARK   37  A    between atoms: _96  and  _97
REMARK   38  A    between atoms: _99  and  _101
REMARK   39  A    between atoms: _101  and  _102
REMARK   40  A    between atoms: _101  and  _104
REMARK   41  A    between atoms: _104  and  _105
REMARK   42  A    between atoms: _105  and  _106
REMARK   43  A    between atoms: _109  and  _111
REMARK   44  A    between atoms: _111  and  _112
REMARK   45  A    between atoms: _111  and  _114
REMARK   46  A    between atoms: _114  and  _115
REMARK   47  A    between atoms: _120  and  _122
REMARK   48  A    between atoms: _122  and  _123
REMARK   49  A    between atoms: _126  and  _128
REMARK   50  A    between atoms: _128  and  _129
REMARK   51  A    between atoms: _132  and  _134
REMARK   52  A    between atoms: _134  and  _135
REMARK   53  A    between atoms: _137  and  _139
REMARK   54  A    between atoms: _139  and  _140
REMARK   55  A    between atoms: _142  and  _144
REMARK   56  A    between atoms: _144  and  _145
REMARK   57  A    between atoms: _144  and  _147
REMARK   58  A    between atoms: _147  and  _148
REMARK   59  A    between atoms: _151  and  _153
REMARK   60  A    between atoms: _153  and  _154
REMARK   61  A    between atoms: _153  and  _156
REMARK   62  A    between atoms: _156  and  _157
REMARK   63  A    between atoms: _162  and  _163
REMARK   64  A    between atoms: _165  and  _167
REMARK   65  A    between atoms: _167  and  _168
REMARK   66  A    between atoms: _171  and  _173
REMARK   67  A    between atoms: _173  and  _174
REMARK   68  A    between atoms: _173  and  _176
REMARK   69  A    between atoms: _176  and  _177
REMARK   70  A    between atoms: _181  and  _182
REMARK   71  A    between atoms: _187  and  _189
REMARK   72  A    between atoms: _189  and  _190
REMARK   73  A    between atoms: _193  and  _194
REMARK   74  A    between atoms: _199  and  _201
REMARK   75  A    between atoms: _201  and  _202
REMARK   76  A    between atoms: _201  and  _204
REMARK   77  A    between atoms: _204  and  _205
REMARK   78  A    between atoms: _210  and  _212
REMARK   79  A    between atoms: _212  and  _213
REMARK   80  A    between atoms: _212  and  _215
REMARK   81  A    between atoms: _215  and  _216
REMARK   82  A    between atoms: _221  and  _222
REMARK   83  A    between atoms: _224  and  _226
REMARK   84  A    between atoms: _226  and  _227
REMARK   85  A    between atoms: _226  and  _229
REMARK   86  A    between atoms: _229  and  _230
REMARK   87  A    between atoms: _230  and  _231
REMARK   88  A    between atoms: _234  and  _236
REMARK   89  A    between atoms: _236  and  _237
REMARK   90  A    between atoms: _236  and  _239
REMARK   91  A    between atoms: _239  and  _240
REMARK   92  A    between atoms: _243  and  _245
REMARK   93  A    between atoms: _245  and  _246
REMARK   94  A    between atoms: _245  and  _248
REMARK   95  A    between atoms: _248  and  _249
REMARK   96  A    between atoms: _252  and  _254
REMARK   97  A    between atoms: _254  and  _255
REMARK   98  A    between atoms: _254  and  _257
REMARK   99  A    between atoms: _257  and  _258
REMARK  100  A    between atoms: _261  and  _263
REMARK  101  A    between atoms: _263  and  _264
REMARK  102  A    between atoms: _263  and  _266
REMARK  103  A    between atoms: _269  and  _271
REMARK  104  A    between atoms: _271  and  _272
REMARK  105  A    between atoms: _274  and  _276
REMARK  106  A    between atoms: _276  and  _277
REMARK  107  A    between atoms: _276  and  _279
REMARK  108  A    between atoms: _279  and  _280
REMARK  109  A    between atoms: _280  and  _281
REMARK  110  A    between atoms: _283  and  _285
REMARK  111  A    between atoms: _285  and  _286
REMARK  112  A    between atoms: _285  and  _288
REMARK  113  A    between atoms: _288  and  _289
REMARK  114  A    between atoms: _291  and  _293
REMARK  115  A    between atoms: _293  and  _294
REMARK  116  A    between atoms: _293  and  _296
REMARK  117  A    between atoms: _296  and  _297
REMARK  118  A    between atoms: _300  and  _302
REMARK  119  A    between atoms: _302  and  _303
REMARK  120  A    between atoms: _302  and  _305
REMARK  121  A    between atoms: _308  and  _310
REMARK  122  A    between atoms: _310  and  _311
REMARK  123  A    between atoms: _310  and  _313
REMARK  124  A    between atoms: _313  and  _314
REMARK  125  A    between atoms: _317  and  _319
REMARK  126  A    between atoms: _319  and  _320
REMARK  127  A    between atoms: _319  and  _322
REMARK  128  A    between atoms: _322  and  _323
REMARK  129  A    between atoms: _328  and  _330
REMARK  130  A    between atoms: _330  and  _331
REMARK  131  A    between atoms: _330  and  _333
REMARK  132  A    between atoms: _333  and  _334
REMARK  133  A    between atoms: _337  and  _339
REMARK  134  A    between atoms: _339  and  _340
REMARK  135  A    between atoms: _343  and  _345
REMARK  136  A    between atoms: _345  and  _346
REMARK  137  A    between atoms: _349  and  _351
REMARK  138  A    between atoms: _351  and  _352
REMARK  139  A    between atoms: _351  and  _354
REMARK  140  A    between atoms: _354  and  _355
REMARK  141  A    between atoms: _358  and  _360
REMARK  142  A    between atoms: _360  and  _361
REMARK  143  A    between atoms: _360  and  _363
REMARK  144  A    between atoms: _363  and  _364
REMARK  145  A    between atoms: _366  and  _368
REMARK  146  A    between atoms: _368  and  _369
REMARK  147  A    between atoms: _368  and  _371
REMARK  148  A    between atoms: _371  and  _372
REMARK  149  A    between atoms: _377  and  _379
REMARK  150  A    between atoms: _379  and  _380
REMARK  151  A    between atoms: _383  and  _385
REMARK  152  A    between atoms: _385  and  _386
REMARK  153  A    between atoms: _385  and  _388
REMARK  154  A    between atoms: _388  and  _389
REMARK  155  A    between atoms: _389  and  _390
REMARK  156  A    between atoms: _393  and  _395
REMARK  157  A    between atoms: _395  and  _396
REMARK  158  A    between atoms: _395  and  _398
REMARK  159  A    between atoms: _401  and  _403
REMARK  160  A    between atoms: _403  and  _404
REMARK  161  A    between atoms: _403  and  _406
REMARK  162  A    between atoms: _406  and  _407
REMARK  163  A    between atoms: _410  and  _412
REMARK  164  A    between atoms: _412  and  _413
REMARK  165  A    between atoms: _415  and  _417
REMARK  166  A    between atoms: _417  and  _418
REMARK  167  A    between atoms: _417  and  _420
REMARK  168  A    between atoms: _420  and  _421
REMARK  169  A    between atoms: _421  and  _422
REMARK  170  A    between atoms: _425  and  _427
REMARK  171  A    between atoms: _427  and  _428
REMARK  172  A    between atoms: _427  and  _430
REMARK  173  A    between atoms: _430  and  _431
REMARK  174  A    between atoms: _437  and  _439
REMARK  175  A    between atoms: _439  and  _440
REMARK  176  A    between atoms: _439  and  _442
REMARK  177  A    between atoms: _445  and  _447
REMARK  178  A    between atoms: _447  and  _448
REMARK  179  A    between atoms: _447  and  _450
REMARK  180  A    between atoms: _450  and  _451
REMARK                            x       y       z     vdW  Elec       q    Type
REMARK                         _______ _______ _______ _____ _____    ______ ____
ROOT
ATOM      1  O   HOH     1      59.424  16.852  53.181  0.00  0.00    +0.000 OA
ENDROOT
TORSDOF 0
REMARK  Name = ../refined-set-2016/1n3i/1n3i_pocket.pdb
REMARK  180 active torsions:
REMARK  status: ('A' for Active; 'I' for Inactive)
REMARK    1  A    between atoms: _1  and  _3
REMARK    2  A    between atoms: _3  and  _4
REMARK    3  A    between atoms: _6  and  _8
REMARK    4  A    between atoms: _8  and  _9
REMARK    5  A    between atoms: _8  and  _11
REMARK    6  A    between atoms: _11  and  _12
REMARK    7  A    between atoms: _14  and  _16
REMARK    8  A    between atoms: _16  and  _17
REMARK    9  A    between atoms: _19  and  _21
REMARK   10  A    between atoms: _21  and  _22
REMARK   11  A    between atoms: _25  and  _27
REMARK   12  A    between atoms: _27  and  _28
REMARK   13  A    between atoms: _31  and  _33
REMARK   14  A    between atoms: _33  and  _34
REMARK   15  A    between atoms: _33  and  _36
REMARK   16  A    between atoms: _36  and  _37
REMARK   17  A    between atoms: _42  and  _44
REMARK   18  A    between atoms: _44  and  _45
REMARK   19  A    between atoms: _44  and  _47
REMARK   20  A    between atoms: _47  and  _48
REMARK   21  A    between atoms: _48  and  _49
REMARK   22  A    between atoms: _49  and  _50
REMARK   23  A    between atoms: _59  and  _61
REMARK   24  A    between atoms: _61  and  _62
REMARK   25  A    between atoms: _61  and  _64
REMARK   26  A    between atoms: _64  and  _65
REMARK   27  A    between atoms: _68  and  _70
REMARK   28  A    between atoms: _70  and  _71
REMARK   29  A    between atoms: _70  and  _73
REMARK   30  A    between atoms: _73  and  _74
REMARK   31  A    between atoms: _79  and  _81
REMARK   32  A    between atoms: _81  and  _82
REMARK   33  A    between atoms: _85  and  _87
REMARK   34  A    between atoms: _87  and  _88
REMARK   35  A    between atoms: _87  and  _90
REMARK   36  A    between atoms: _90  and  _91
REMARK   37  A    between atoms: _96  and  _97
REMARK   38  A    between atoms: _99  and  _101
REMARK   39  A    between atoms: _101  and  _102
REMARK   40  A    between atoms: _101  and  _104
REMARK   41  A    between atoms: _104  and  _105
REMARK   42  A    between atoms: _105  and  _106
REMARK   43  A    between atoms: _109  and  _111
REMARK   44  A    between atoms: _111  and  _112
REMARK   45  A    between atoms: _111  and  _114
REMARK   46  A    between atoms: _114  and  _115
REMARK   47  A    between atoms: _120  and  _122
REMARK   48  A    between atoms: _122  and  _123
REMARK   49  A    between atoms: _126  and  _128
REMARK   50  A    between atoms: _128  and  _129
REMARK   51  A    between atoms: _132  and  _134
REMARK   52  A    between atoms: _134  and  _135
REMARK   53  A    between atoms: _137  and  _139
REMARK   54  A    between atoms: _139  and  _140
REMARK   55  A    between atoms: _142  and  _144
REMARK   56  A    between atoms: _144  and  _145
REMARK   57  A    between atoms: _144  and  _147
REMARK   58  A    between atoms: _147  and  _148
REMARK   59  A    between atoms: _151  and  _153
REMARK   60  A    between atoms: _153  and  _154
REMARK   61  A    between atoms: _153  and  _156
REMARK   62  A    between atoms: _156  and  _157
REMARK   63  A    between atoms: _162  and  _163
REMARK   64  A    between atoms: _165  and  _167
REMARK   65  A    between atoms: _167  and  _168
REMARK   66  A    between atoms: _171  and  _173
REMARK   67  A    between atoms: _173  and  _174
REMARK   68  A    between atoms: _173  and  _176
REMARK   69  A    between atoms: _176  and  _177
REMARK   70  A    between atoms: _181  and  _182
REMARK   71  A    between atoms: _187  and  _189
REMARK   72  A    between atoms: _189  and  _190
REMARK   73  A    between atoms: _193  and  _194
REMARK   74  A    between atoms: _199  and  _201
REMARK   75  A    between atoms: _201  and  _202
REMARK   76  A    between atoms: _201  and  _204
REMARK   77  A    between atoms: _204  and  _205
REMARK   78  A    between atoms: _210  and  _212
REMARK   79  A    between atoms: _212  and  _213
REMARK   80  A    between atoms: _212  and  _215
REMARK   81  A    between atoms: _215  and  _216
REMARK   82  A    between atoms: _221  and  _222
REMARK   83  A    between atoms: _224  and  _226
REMARK   84  A    between atoms: _226  and  _227
REMARK   85  A    between atoms: _226  and  _229
REMARK   86  A    between atoms: _229  and  _230
REMARK   87  A    between atoms: _230  and  _231
REMARK   88  A    between atoms: _234  and  _236
REMARK   89  A    between atoms: _236  and  _237
REMARK   90  A    between atoms: _236  and  _239
REMARK   91  A    between atoms: _239  and  _240
REMARK   92  A    between atoms: _243  and  _245
REMARK   93  A    between atoms: _245  and  _246
REMARK   94  A    between atoms: _245  and  _248
REMARK   95  A    between atoms: _248  and  _249
REMARK   96  A    between atoms: _252  and  _254
REMARK   97  A    between atoms: _254  and  _255
REMARK   98  A    between atoms: _254  and  _257
REMARK   99  A    between atoms: _257  and  _258
REMARK  100  A    between atoms: _261  and  _263
REMARK  101  A    between atoms: _263  and  _264
REMARK  102  A    between atoms: _263  and  _266
REMARK  103  A    between atoms: _269  and  _271
REMARK  104  A    between atoms: _271  and  _272
REMARK  105  A    between atoms: _274  and  _276
REMARK  106  A    between atoms: _276  and  _277
REMARK  107  A    between atoms: _276  and  _279
REMARK  108  A    between atoms: _279  and  _280
REMARK  109  A    between atoms: _280  and  _281
REMARK  110  A    between atoms: _283  and  _285
REMARK  111  A    between atoms: _285  and  _286
REMARK  112  A    between atoms: _285  and  _288
REMARK  113  A    between atoms: _288  and  _289
REMARK  114  A    between atoms: _291  and  _293
REMARK  115  A    between atoms: _293  and  _294
REMARK  116  A    between atoms: _293  and  _296
REMARK  117  A    between atoms: _296  and  _297
REMARK  118  A    between atoms: _300  and  _302
REMARK  119  A    between atoms: _302  and  _303
REMARK  120  A    between atoms: _302  and  _305
REMARK  121  A    between atoms: _308  and  _310
REMARK  122  A    between atoms: _310  and  _311
REMARK  123  A    between atoms: _310  and  _313
REMARK  124  A    between atoms: _313  and  _314
REMARK  125  A    between atoms: _317  and  _319
REMARK  126  A    between atoms: _319  and  _320
REMARK  127  A    between atoms: _319  and  _322
REMARK  128  A    between atoms: _322  and  _323
REMARK  129  A    between atoms: _328  and  _330
REMARK  130  A    between atoms: _330  and  _331
REMARK  131  A    between atoms: _330  and  _333
REMARK  132  A    between atoms: _333  and  _334
REMARK  133  A    between atoms: _337  and  _339
REMARK  134  A    between atoms: _339  and  _340
REMARK  135  A    between atoms: _343  and  _345
REMARK  136  A    between atoms: _345  and  _346
REMARK  137  A    between atoms: _349  and  _351
REMARK  138  A    between atoms: _351  and  _352
REMARK  139  A    between atoms: _351  and  _354
REMARK  140  A    between atoms: _354  and  _355
REMARK  141  A    between atoms: _358  and  _360
REMARK  142  A    between atoms: _360  and  _361
REMARK  143  A    between atoms: _360  and  _363
REMARK  144  A    between atoms: _363  and  _364
REMARK  145  A    between atoms: _366  and  _368
REMARK  146  A    between atoms: _368  and  _369
REMARK  147  A    between atoms: _368  and  _371
REMARK  148  A    between atoms: _371  and  _372
REMARK  149  A    between atoms: _377  and  _379
REMARK  150  A    between atoms: _379  and  _380
REMARK  151  A    between atoms: _383  and  _385
REMARK  152  A    between atoms: _385  and  _386
REMARK  153  A    between atoms: _385  and  _388
REMARK  154  A    between atoms: _388  and  _389
REMARK  155  A    between atoms: _389  and  _390
REMARK  156  A    between atoms: _393  and  _395
REMARK  157  A    between atoms: _395  and  _396
REMARK  158  A    between atoms: _395  and  _398
REMARK  159  A    between atoms: _401  and  _403
REMARK  160  A    between atoms: _403  and  _404
REMARK  161  A    between atoms: _403  and  _406
REMARK  162  A    between atoms: _406  and  _407
REMARK  163  A    between atoms: _410  and  _412
REMARK  164  A    between atoms: _412  and  _413
REMARK  165  A    between atoms: _415  and  _417
REMARK  166  A    between atoms: _417  and  _418
REMARK  167  A    between atoms: _417  and  _420
REMARK  168  A    between atoms: _420  and  _421
REMARK  169  A    between atoms: _421  and  _422
REMARK  170  A    between atoms: _425  and  _427
REMARK  171  A    between atoms: _427  and  _428
REMARK  172  A    between atoms: _427  and  _430
REMARK  173  A    between atoms: _430  and  _431
REMARK  174  A    between atoms: _437  and  _439
REMARK  175  A    between atoms: _439  and  _440
REMARK  176  A    between atoms: _439  and  _442
REMARK  177  A    between atoms: _445  and  _447
REMARK  178  A    between atoms: _447  and  _448
REMARK  179  A    between atoms: _447  and  _450
REMARK  180  A    between atoms: _450  and  _451
REMARK                            x       y       z     vdW  Elec       q    Type
REMARK                         _______ _______ _______ _____ _____    ______ ____
ROOT
ATOM      1  O   HOH     1      49.554  24.336  43.073  0.00  0.00    +0.000 OA
ENDROOT
TORSDOF 0
REMARK  Name = ../refined-set-2016/1n3i/1n3i_pocket.pdb
REMARK  180 active torsions:
REMARK  status: ('A' for Active; 'I' for Inactive)
REMARK    1  A    between atoms: _1  and  _3
REMARK    2  A    between atoms: _3  and  _4
REMARK    3  A    between atoms: _6  and  _8
REMARK    4  A    between atoms: _8  and  _9
REMARK    5  A    between atoms: _8  and  _11
REMARK    6  A    between atoms: _11  and  _12
REMARK    7  A    between atoms: _14  and  _16
REMARK    8  A    between atoms: _16  and  _17
REMARK    9  A    between atoms: _19  and  _21
REMARK   10  A    between atoms: _21  and  _22
REMARK   11  A    between atoms: _25  and  _27
REMARK   12  A    between atoms: _27  and  _28
REMARK   13  A    between atoms: _31  and  _33
REMARK   14  A    between atoms: _33  and  _34
REMARK   15  A    between atoms: _33  and  _36
REMARK   16  A    between atoms: _36  and  _37
REMARK   17  A    between atoms: _42  and  _44
REMARK   18  A    between atoms: _44  and  _45
REMARK   19  A    between atoms: _44  and  _47
REMARK   20  A    between atoms: _47  and  _48
REMARK   21  A    between atoms: _48  and  _49
REMARK   22  A    between atoms: _49  and  _50
REMARK   23  A    between atoms: _59  and  _61
REMARK   24  A    between atoms: _61  and  _62
REMARK   25  A    between atoms: _61  and  _64
REMARK   26  A    between atoms: _64  and  _65
REMARK   27  A    between atoms: _68  and  _70
REMARK   28  A    between atoms: _70  and  _71
REMARK   29  A    between atoms: _70  and  _73
REMARK   30  A    between atoms: _73  and  _74
REMARK   31  A    between atoms: _79  and  _81
REMARK   32  A    between atoms: _81  and  _82
REMARK   33  A    between atoms: _85  and  _87
REMARK   34  A    between atoms: _87  and  _88
REMARK   35  A    between atoms: _87  and  _90
REMARK   36  A    between atoms: _90  and  _91
REMARK   37  A    between atoms: _96  and  _97
REMARK   38  A    between atoms: _99  and  _101
REMARK   39  A    between atoms: _101  and  _102
REMARK   40  A    between atoms: _101  and  _104
REMARK   41  A    between atoms: _104  and  _105
REMARK   42  A    between atoms: _105  and  _106
REMARK   43  A    between atoms: _109  and  _111
REMARK   44  A    between atoms: _111  and  _112
REMARK   45  A    between atoms: _111  and  _114
REMARK   46  A    between atoms: _114  and  _115
REMARK   47  A    between atoms: _120  and  _122
REMARK   48  A    between atoms: _122  and  _123
REMARK   49  A    between atoms: _126  and  _128
REMARK   50  A    between atoms: _128  and  _129
REMARK   51  A    between atoms: _132  and  _134
REMARK   52  A    between atoms: _134  and  _135
REMARK   53  A    between atoms: _137  and  _139
REMARK   54  A    between atoms: _139  and  _140
REMARK   55  A    between atoms: _142  and  _144
REMARK   56  A    between atoms: _144  and  _145
REMARK   57  A    between atoms: _144  and  _147
REMARK   58  A    between atoms: _147  and  _148
REMARK   59  A    between atoms: _151  and  _153
REMARK   60  A    between atoms: _153  and  _154
REMARK   61  A    between atoms: _153  and  _156
REMARK   62  A    between atoms: _156  and  _157
REMARK   63  A    between atoms: _162  and  _163
REMARK   64  A    between atoms: _165  and  _167
REMARK   65  A    between atoms: _167  and  _168
REMARK   66  A    between atoms: _171  and  _173
REMARK   67  A    between atoms: _173  and  _174
REMARK   68  A    between atoms: _173  and  _176
REMARK   69  A    between atoms: _176  and  _177
REMARK   70  A    between atoms: _181  and  _182
REMARK   71  A    between atoms: _187  and  _189
REMARK   72  A    between atoms: _189  and  _190
REMARK   73  A    between atoms: _193  and  _194
REMARK   74  A    between atoms: _199  and  _201
REMARK   75  A    between atoms: _201  and  _202
REMARK   76  A    between atoms: _201  and  _204
REMARK   77  A    between atoms: _204  and  _205
REMARK   78  A    between atoms: _210  and  _212
REMARK   79  A    between atoms: _212  and  _213
REMARK   80  A    between atoms: _212  and  _215
REMARK   81  A    between atoms: _215  and  _216
REMARK   82  A    between atoms: _221  and  _222
REMARK   83  A    between atoms: _224  and  _226
REMARK   84  A    between atoms: _226  and  _227
REMARK   85  A    between atoms: _226  and  _229
REMARK   86  A    between atoms: _229  and  _230
REMARK   87  A    between atoms: _230  and  _231
REMARK   88  A    between atoms: _234  and  _236
REMARK   89  A    between atoms: _236  and  _237
REMARK   90  A    between atoms: _236  and  _239
REMARK   91  A    between atoms: _239  and  _240
REMARK   92  A    between atoms: _243  and  _245
REMARK   93  A    between atoms: _245  and  _246
REMARK   94  A    between atoms: _245  and  _248
REMARK   95  A    between atoms: _248  and  _249
REMARK   96  A    between atoms: _252  and  _254
REMARK   97  A    between atoms: _254  and  _255
REMARK   98  A    between atoms: _254  and  _257
REMARK   99  A    between atoms: _257  and  _258
REMARK  100  A    between atoms: _261  and  _263
REMARK  101  A    between atoms: _263  and  _264
REMARK  102  A    between atoms: _263  and  _266
REMARK  103  A    between atoms: _269  and  _271
REMARK  104  A    between atoms: _271  and  _272
REMARK  105  A    between atoms: _274  and  _276
REMARK  106  A    between atoms: _276  and  _277
REMARK  107  A    between atoms: _276  and  _279
REMARK  108  A    between atoms: _279  and  _280
REMARK  109  A    between atoms: _280  and  _281
REMARK  110  A    between atoms: _283  and  _285
REMARK  111  A    between atoms: _285  and  _286
REMARK  112  A    between atoms: _285  and  _288
REMARK  113  A    between atoms: _288  and  _289
REMARK  114  A    between atoms: _291  and  _293
REMARK  115  A    between atoms: _293  and  _294
REMARK  116  A    between atoms: _293  and  _296
REMARK  117  A    between atoms: _296  and  _297
REMARK  118  A    between atoms: _300  and  _302
REMARK  119  A    between atoms: _302  and  _303
REMARK  120  A    between atoms: _302  and  _305
REMARK  121  A    between atoms: _308  and  _310
REMARK  122  A    between atoms: _310  and  _311
REMARK  123  A    between atoms: _310  and  _313
REMARK  124  A    between atoms: _313  and  _314
REMARK  125  A    between atoms: _317  and  _319
REMARK  126  A    between atoms: _319  and  _320
REMARK  127  A    between atoms: _319  and  _322
REMARK  128  A    between atoms: _322  and  _323
REMARK  129  A    between atoms: _328  and  _330
REMARK  130  A    between atoms: _330  and  _331
REMARK  131  A    between atoms: _330  and  _333
REMARK  132  A    between atoms: _333  and  _334
REMARK  133  A    between atoms: _337  and  _339
REMARK  134  A    between atoms: _339  and  _340
REMARK  135  A    between atoms: _343  and  _345
REMARK  136  A    between atoms: _345  and  _346
REMARK  137  A    between atoms: _349  and  _351
REMARK  138  A    between atoms: _351  and  _352
REMARK  139  A    between atoms: _351  and  _354
REMARK  140  A    between atoms: _354  and  _355
REMARK  141  A    between atoms: _358  and  _360
REMARK  142  A    between atoms: _360  and  _361
REMARK  143  A    between atoms: _360  and  _363
REMARK  144  A    between atoms: _363  and  _364
REMARK  145  A    between atoms: _366  and  _368
REMARK  146  A    between atoms: _368  and  _369
REMARK  147  A    between atoms: _368  and  _371
REMARK  148  A    between atoms: _371  and  _372
REMARK  149  A    between atoms: _377  and  _379
REMARK  150  A    between atoms: _379  and  _380
REMARK  151  A    between atoms: _383  and  _385
REMARK  152  A    between atoms: _385  and  _386
REMARK  153  A    between atoms: _385  and  _388
REMARK  154  A    between atoms: _388  and  _389
REMARK  155  A    between atoms: _389  and  _390
REMARK  156  A    between atoms: _393  and  _395
REMARK  157  A    between atoms: _395  and  _396
REMARK  158  A    between atoms: _395  and  _398
REMARK  159  A    between atoms: _401  and  _403
REMARK  160  A    between atoms: _403  and  _404
REMARK  161  A    between atoms: _403  and  _406
REMARK  162  A    between atoms: _406  and  _407
REMARK  163  A    between atoms: _410  and  _412
REMARK  164  A    between atoms: _412  and  _413
REMARK  165  A    between atoms: _415  and  _417
REMARK  166  A    between atoms: _417  and  _418
REMARK  167  A    between atoms: _417  and  _420
REMARK  168  A    between atoms: _420  and  _421
REMARK  169  A    between atoms: _421  and  _422
REMARK  170  A    between atoms: _425  and  _427
REMARK  171  A    between atoms: _427  and  _428
REMARK  172  A    between atoms: _427  and  _430
REMARK  173  A    between atoms: _430  and  _431
REMARK  174  A    between atoms: _437  and  _439
REMARK  175  A    between atoms: _439  and  _440
REMARK  176  A    between atoms: _439  and  _442
REMARK  177  A    between atoms: _445  and  _447
REMARK  178  A    between atoms: _447  and  _448
REMARK  179  A    between atoms: _447  and  _450
REMARK  180  A    between atoms: _450  and  _451
REMARK                            x       y       z     vdW  Elec       q    Type
REMARK                         _______ _______ _______ _____ _____    ______ ____
ROOT
ATOM      1  O   HOH     1      50.044  10.366  45.286  0.00  0.00    +0.000 OA
ENDROOT
TORSDOF 0
REMARK  Name = ../refined-set-2016/1n3i/1n3i_pocket.pdb
REMARK  180 active torsions:
REMARK  status: ('A' for Active; 'I' for Inactive)
REMARK    1  A    between atoms: _1  and  _3
REMARK    2  A    between atoms: _3  and  _4
REMARK    3  A    between atoms: _6  and  _8
REMARK    4  A    between atoms: _8  and  _9
REMARK    5  A    between atoms: _8  and  _11
REMARK    6  A    between atoms: _11  and  _12
REMARK    7  A    between atoms: _14  and  _16
REMARK    8  A    between atoms: _16  and  _17
REMARK    9  A    between atoms: _19  and  _21
REMARK   10  A    between atoms: _21  and  _22
REMARK   11  A    between atoms: _25  and  _27
REMARK   12  A    between atoms: _27  and  _28
REMARK   13  A    between atoms: _31  and  _33
REMARK   14  A    between atoms: _33  and  _34
REMARK   15  A    between atoms: _33  and  _36
REMARK   16  A    between atoms: _36  and  _37
REMARK   17  A    between atoms: _42  and  _44
REMARK   18  A    between atoms: _44  and  _45
REMARK   19  A    between atoms: _44  and  _47
REMARK   20  A    between atoms: _47  and  _48
REMARK   21  A    between atoms: _48  and  _49
REMARK   22  A    between atoms: _49  and  _50
REMARK   23  A    between atoms: _59  and  _61
REMARK   24  A    between atoms: _61  and  _62
REMARK   25  A    between atoms: _61  and  _64
REMARK   26  A    between atoms: _64  and  _65
REMARK   27  A    between atoms: _68  and  _70
REMARK   28  A    between atoms: _70  and  _71
REMARK   29  A    between atoms: _70  and  _73
REMARK   30  A    between atoms: _73  and  _74
REMARK   31  A    between atoms: _79  and  _81
REMARK   32  A    between atoms: _81  and  _82
REMARK   33  A    between atoms: _85  and  _87
REMARK   34  A    between atoms: _87  and  _88
REMARK   35  A    between atoms: _87  and  _90
REMARK   36  A    between atoms: _90  and  _91
REMARK   37  A    between atoms: _96  and  _97
REMARK   38  A    between atoms: _99  and  _101
REMARK   39  A    between atoms: _101  and  _102
REMARK   40  A    between atoms: _101  and  _104
REMARK   41  A    between atoms: _104  and  _105
REMARK   42  A    between atoms: _105  and  _106
REMARK   43  A    between atoms: _109  and  _111
REMARK   44  A    between atoms: _111  and  _112
REMARK   45  A    between atoms: _111  and  _114
REMARK   46  A    between atoms: _114  and  _115
REMARK   47  A    between atoms: _120  and  _122
REMARK   48  A    between atoms: _122  and  _123
REMARK   49  A    between atoms: _126  and  _128
REMARK   50  A    between atoms: _128  and  _129
REMARK   51  A    between atoms: _132  and  _134
REMARK   52  A    between atoms: _134  and  _135
REMARK   53  A    between atoms: _137  and  _139
REMARK   54  A    between atoms: _139  and  _140
REMARK   55  A    between atoms: _142  and  _144
REMARK   56  A    between atoms: _144  and  _145
REMARK   57  A    between atoms: _144  and  _147
REMARK   58  A    between atoms: _147  and  _148
REMARK   59  A    between atoms: _151  and  _153
REMARK   60  A    between atoms: _153  and  _154
REMARK   61  A    between atoms: _153  and  _156
REMARK   62  A    between atoms: _156  and  _157
REMARK   63  A    between atoms: _162  and  _163
REMARK   64  A    between atoms: _165  and  _167
REMARK   65  A    between atoms: _167  and  _168
REMARK   66  A    between atoms: _171  and  _173
REMARK   67  A    between atoms: _173  and  _174
REMARK   68  A    between atoms: _173  and  _176
REMARK   69  A    between atoms: _176  and  _177
REMARK   70  A    between atoms: _181  and  _182
REMARK   71  A    between atoms: _187  and  _189
REMARK   72  A    between atoms: _189  and  _190
REMARK   73  A    between atoms: _193  and  _194
REMARK   74  A    between atoms: _199  and  _201
REMARK   75  A    between atoms: _201  and  _202
REMARK   76  A    between atoms: _201  and  _204
REMARK   77  A    between atoms: _204  and  _205
REMARK   78  A    between atoms: _210  and  _212
REMARK   79  A    between atoms: _212  and  _213
REMARK   80  A    between atoms: _212  and  _215
REMARK   81  A    between atoms: _215  and  _216
REMARK   82  A    between atoms: _221  and  _222
REMARK   83  A    between atoms: _224  and  _226
REMARK   84  A    between atoms: _226  and  _227
REMARK   85  A    between atoms: _226  and  _229
REMARK   86  A    between atoms: _229  and  _230
REMARK   87  A    between atoms: _230  and  _231
REMARK   88  A    between atoms: _234  and  _236
REMARK   89  A    between atoms: _236  and  _237
REMARK   90  A    between atoms: _236  and  _239
REMARK   91  A    between atoms: _239  and  _240
REMARK   92  A    between atoms: _243  and  _245
REMARK   93  A    between atoms: _245  and  _246
REMARK   94  A    between atoms: _245  and  _248
REMARK   95  A    between atoms: _248  and  _249
REMARK   96  A    between atoms: _252  and  _254
REMARK   97  A    between atoms: _254  and  _255
REMARK   98  A    between atoms: _254  and  _257
REMARK   99  A    between atoms: _257  and  _258
REMARK  100  A    between atoms: _261  and  _263
REMARK  101  A    between atoms: _263  and  _264
REMARK  102  A    between atoms: _263  and  _266
REMARK  103  A    between atoms: _269  and  _271
REMARK  104  A    between atoms: _271  and  _272
REMARK  105  A    between atoms: _274  and  _276
REMARK  106  A    between atoms: _276  and  _277
REMARK  107  A    between atoms: _276  and  _279
REMARK  108  A    between atoms: _279  and  _280
REMARK  109  A    between atoms: _280  and  _281
REMARK  110  A    between atoms: _283  and  _285
REMARK  111  A    between atoms: _285  and  _286
REMARK  112  A    between atoms: _285  and  _288
REMARK  113  A    between atoms: _288  and  _289
REMARK  114  A    between atoms: _291  and  _293
REMARK  115  A    between atoms: _293  and  _294
REMARK  116  A    between atoms: _293  and  _296
REMARK  117  A    between atoms: _296  and  _297
REMARK  118  A    between atoms: _300  and  _302
REMARK  119  A    between atoms: _302  and  _303
REMARK  120  A    between atoms: _302  and  _305
REMARK  121  A    between atoms: _308  and  _310
REMARK  122  A    between atoms: _310  and  _311
REMARK  123  A    between atoms: _310  and  _313
REMARK  124  A    between atoms: _313  and  _314
REMARK  125  A    between atoms: _317  and  _319
REMARK  126  A    between atoms: _319  and  _320
REMARK  127  A    between atoms: _319  and  _322
REMARK  128  A    between atoms: _322  and  _323
REMARK  129  A    between atoms: _328  and  _330
REMARK  130  A    between atoms: _330  and  _331
REMARK  131  A    between atoms: _330  and  _333
REMARK  132  A    between atoms: _333  and  _334
REMARK  133  A    between atoms: _337  and  _339
REMARK  134  A    between atoms: _339  and  _340
REMARK  135  A    between atoms: _343  and  _345
REMARK  136  A    between atoms: _345  and  _346
REMARK  137  A    between atoms: _349  and  _351
REMARK  138  A    between atoms: _351  and  _352
REMARK  139  A    between atoms: _351  and  _354
REMARK  140  A    between atoms: _354  and  _355
REMARK  141  A    between atoms: _358  and  _360
REMARK  142  A    between atoms: _360  and  _361
REMARK  143  A    between atoms: _360  and  _363
REMARK  144  A    between atoms: _363  and  _364
REMARK  145  A    between atoms: _366  and  _368
REMARK  146  A    between atoms: _368  and  _369
REMARK  147  A    between atoms: _368  and  _371
REMARK  148  A    between atoms: _371  and  _372
REMARK  149  A    between atoms: _377  and  _379
REMARK  150  A    between atoms: _379  and  _380
REMARK  151  A    between atoms: _383  and  _385
REMARK  152  A    between atoms: _385  and  _386
REMARK  153  A    between atoms: _385  and  _388
REMARK  154  A    between atoms: _388  and  _389
REMARK  155  A    between atoms: _389  and  _390
REMARK  156  A    between atoms: _393  and  _395
REMARK  157  A    between atoms: _395  and  _396
REMARK  158  A    between atoms: _395  and  _398
REMARK  159  A    between atoms: _401  and  _403
REMARK  160  A    between atoms: _403  and  _404
REMARK  161  A    between atoms: _403  and  _406
REMARK  162  A    between atoms: _406  and  _407
REMARK  163  A    between atoms: _410  and  _412
REMARK  164  A    between atoms: _412  and  _413
REMARK  165  A    between atoms: _415  and  _417
REMARK  166  A    between atoms: _417  and  _418
REMARK  167  A    between atoms: _417  and  _420
REMARK  168  A    between atoms: _420  and  _421
REMARK  169  A    between atoms: _421  and  _422
REMARK  170  A    between atoms: _425  and  _427
REMARK  171  A    between atoms: _427  and  _428
REMARK  172  A    between atoms: _427  and  _430
REMARK  173  A    between atoms: _430  and  _431
REMARK  174  A    between atoms: _437  and  _439
REMARK  175  A    between atoms: _439  and  _440
REMARK  176  A    between atoms: _439  and  _442
REMARK  177  A    between atoms: _445  and  _447
REMARK  178  A    between atoms: _447  and  _448
REMARK  179  A    between atoms: _447  and  _450
REMARK  180  A    between atoms: _450  and  _451
REMARK                            x       y       z     vdW  Elec       q    Type
REMARK                         _______ _______ _______ _____ _____    ______ ____
ROOT
ATOM      1  O   HOH     1      46.753  15.952  38.186  0.00  0.00    +0.000 OA
ENDROOT
TORSDOF 0
REMARK  Name = ../refined-set-2016/1n3i/1n3i_pocket.pdb
REMARK  180 active torsions:
REMARK  status: ('A' for Active; 'I' for Inactive)
REMARK    1  A    between atoms: _1  and  _3
REMARK    2  A    between atoms: _3  and  _4
REMARK    3  A    between atoms: _6  and  _8
REMARK    4  A    between atoms: _8  and  _9
REMARK    5  A    between atoms: _8  and  _11
REMARK    6  A    between atoms: _11  and  _12
REMARK    7  A    between atoms: _14  and  _16
REMARK    8  A    between atoms: _16  and  _17
REMARK    9  A    between atoms: _19  and  _21
REMARK   10  A    between atoms: _21  and  _22
REMARK   11  A    between atoms: _25  and  _27
REMARK   12  A    between atoms: _27  and  _28
REMARK   13  A    between atoms: _31  and  _33
REMARK   14  A    between atoms: _33  and  _34
REMARK   15  A    between atoms: _33  and  _36
REMARK   16  A    between atoms: _36  and  _37
REMARK   17  A    between atoms: _42  and  _44
REMARK   18  A    between atoms: _44  and  _45
REMARK   19  A    between atoms: _44  and  _47
REMARK   20  A    between atoms: _47  and  _48
REMARK   21  A    between atoms: _48  and  _49
REMARK   22  A    between atoms: _49  and  _50
REMARK   23  A    between atoms: _59  and  _61
REMARK   24  A    between atoms: _61  and  _62
REMARK   25  A    between atoms: _61  and  _64
REMARK   26  A    between atoms: _64  and  _65
REMARK   27  A    between atoms: _68  and  _70
REMARK   28  A    between atoms: _70  and  _71
REMARK   29  A    between atoms: _70  and  _73
REMARK   30  A    between atoms: _73  and  _74
REMARK   31  A    between atoms: _79  and  _81
REMARK   32  A    between atoms: _81  and  _82
REMARK   33  A    between atoms: _85  and  _87
REMARK   34  A    between atoms: _87  and  _88
REMARK   35  A    between atoms: _87  and  _90
REMARK   36  A    between atoms: _90  and  _91
REMARK   37  A    between atoms: _96  and  _97
REMARK   38  A    between atoms: _99  and  _101
REMARK   39  A    between atoms: _101  and  _102
REMARK   40  A    between atoms: _101  and  _104
REMARK   41  A    between atoms: _104  and  _105
REMARK   42  A    between atoms: _105  and  _106
REMARK   43  A    between atoms: _109  and  _111
REMARK   44  A    between atoms: _111  and  _112
REMARK   45  A    between atoms: _111  and  _114
REMARK   46  A    between atoms: _114  and  _115
REMARK   47  A    between atoms: _120  and  _122
REMARK   48  A    between atoms: _122  and  _123
REMARK   49  A    between atoms: _126  and  _128
REMARK   50  A    between atoms: _128  and  _129
REMARK   51  A    between atoms: _132  and  _134
REMARK   52  A    between atoms: _134  and  _135
REMARK   53  A    between atoms: _137  and  _139
REMARK   54  A    between atoms: _139  and  _140
REMARK   55  A    between atoms: _142  and  _144
REMARK   56  A    between atoms: _144  and  _145
REMARK   57  A    between atoms: _144  and  _147
REMARK   58  A    between atoms: _147  and  _148
REMARK   59  A    between atoms: _151  and  _153
REMARK   60  A    between atoms: _153  and  _154
REMARK   61  A    between atoms: _153  and  _156
REMARK   62  A    between atoms: _156  and  _157
REMARK   63  A    between atoms: _162  and  _163
REMARK   64  A    between atoms: _165  and  _167
REMARK   65  A    between atoms: _167  and  _168
REMARK   66  A    between atoms: _171  and  _173
REMARK   67  A    between atoms: _173  and  _174
REMARK   68  A    between atoms: _173  and  _176
REMARK   69  A    between atoms: _176  and  _177
REMARK   70  A    between atoms: _181  and  _182
REMARK   71  A    between atoms: _187  and  _189
REMARK   72  A    between atoms: _189  and  _190
REMARK   73  A    between atoms: _193  and  _194
REMARK   74  A    between atoms: _199  and  _201
REMARK   75  A    between atoms: _201  and  _202
REMARK   76  A    between atoms: _201  and  _204
REMARK   77  A    between atoms: _204  and  _205
REMARK   78  A    between atoms: _210  and  _212
REMARK   79  A    between atoms: _212  and  _213
REMARK   80  A    between atoms: _212  and  _215
REMARK   81  A    between atoms: _215  and  _216
REMARK   82  A    between atoms: _221  and  _222
REMARK   83  A    between atoms: _224  and  _226
REMARK   84  A    between atoms: _226  and  _227
REMARK   85  A    between atoms: _226  and  _229
REMARK   86  A    between atoms: _229  and  _230
REMARK   87  A    between atoms: _230  and  _231
REMARK   88  A    between atoms: _234  and  _236
REMARK   89  A    between atoms: _236  and  _237
REMARK   90  A    between atoms: _236  and  _239
REMARK   91  A    between atoms: _239  and  _240
REMARK   92  A    between atoms: _243  and  _245
REMARK   93  A    between atoms: _245  and  _246
REMARK   94  A    between atoms: _245  and  _248
REMARK   95  A    between atoms: _248  and  _249
REMARK   96  A    between atoms: _252  and  _254
REMARK   97  A    between atoms: _254  and  _255
REMARK   98  A    between atoms: _254  and  _257
REMARK   99  A    between atoms: _257  and  _258
REMARK  100  A    between atoms: _261  and  _263
REMARK  101  A    between atoms: _263  and  _264
REMARK  102  A    between atoms: _263  and  _266
REMARK  103  A    between atoms: _269  and  _271
REMARK  104  A    between atoms: _271  and  _272
REMARK  105  A    between atoms: _274  and  _276
REMARK  106  A    between atoms: _276  and  _277
REMARK  107  A    between atoms: _276  and  _279
REMARK  108  A    between atoms: _279  and  _280
REMARK  109  A    between atoms: _280  and  _281
REMARK  110  A    between atoms: _283  and  _285
REMARK  111  A    between atoms: _285  and  _286
REMARK  112  A    between atoms: _285  and  _288
REMARK  113  A    between atoms: _288  and  _289
REMARK  114  A    between atoms: _291  and  _293
REMARK  115  A    between atoms: _293  and  _294
REMARK  116  A    between atoms: _293  and  _296
REMARK  117  A    between atoms: _296  and  _297
REMARK  118  A    between atoms: _300  and  _302
REMARK  119  A    between atoms: _302  and  _303
REMARK  120  A    between atoms: _302  and  _305
REMARK  121  A    between atoms: _308  and  _310
REMARK  122  A    between atoms: _310  and  _311
REMARK  123  A    between atoms: _310  and  _313
REMARK  124  A    between atoms: _313  and  _314
REMARK  125  A    between atoms: _317  and  _319
REMARK  126  A    between atoms: _319  and  _320
REMARK  127  A    between atoms: _319  and  _322
REMARK  128  A    between atoms: _322  and  _323
REMARK  129  A    between atoms: _328  and  _330
REMARK  130  A    between atoms: _330  and  _331
REMARK  131  A    between atoms: _330  and  _333
REMARK  132  A    between atoms: _333  and  _334
REMARK  133  A    between atoms: _337  and  _339
REMARK  134  A    between atoms: _339  and  _340
REMARK  135  A    between atoms: _343  and  _345
REMARK  136  A    between atoms: _345  and  _346
REMARK  137  A    between atoms: _349  and  _351
REMARK  138  A    between atoms: _351  and  _352
REMARK  139  A    between atoms: _351  and  _354
REMARK  140  A    between atoms: _354  and  _355
REMARK  141  A    between atoms: _358  and  _360
REMARK  142  A    between atoms: _360  and  _361
REMARK  143  A    between atoms: _360  and  _363
REMARK  144  A    between atoms: _363  and  _364
REMARK  145  A    between atoms: _366  and  _368
REMARK  146  A    between atoms: _368  and  _369
REMARK  147  A    between atoms: _368  and  _371
REMARK  148  A    between atoms: _371  and  _372
REMARK  149  A    between atoms: _377  and  _379
REMARK  150  A    between atoms: _379  and  _380
REMARK  151  A    between atoms: _383  and  _385
REMARK  152  A    between atoms: _385  and  _386
REMARK  153  A    between atoms: _385  and  _388
REMARK  154  A    between atoms: _388  and  _389
REMARK  155  A    between atoms: _389  and  _390
REMARK  156  A    between atoms: _393  and  _395
REMARK  157  A    between atoms: _395  and  _396
REMARK  158  A    between atoms: _395  and  _398
REMARK  159  A    between atoms: _401  and  _403
REMARK  160  A    between atoms: _403  and  _404
REMARK  161  A    between atoms: _403  and  _406
REMARK  162  A    between atoms: _406  and  _407
REMARK  163  A    between atoms: _410  and  _412
REMARK  164  A    between atoms: _412  and  _413
REMARK  165  A    between atoms: _415  and  _417
REMARK  166  A    between atoms: _417  and  _418
REMARK  167  A    between atoms: _417  and  _420
REMARK  168  A    between atoms: _420  and  _421
REMARK  169  A    between atoms: _421  and  _422
REMARK  170  A    between atoms: _425  and  _427
REMARK  171  A    between atoms: _427  and  _428
REMARK  172  A    between atoms: _427  and  _430
REMARK  173  A    between atoms: _430  and  _431
REMARK  174  A    between atoms: _437  and  _439
REMARK  175  A    between atoms: _439  and  _440
REMARK  176  A    between atoms: _439  and  _442
REMARK  177  A    between atoms: _445  and  _447
REMARK  178  A    between atoms: _447  and  _448
REMARK  179  A    between atoms: _447  and  _450
REMARK  180  A    between atoms: _450  and  _451
REMARK                            x       y       z     vdW  Elec       q    Type
REMARK                         _______ _______ _______ _____ _____    ______ ____
ROOT
ATOM      1  O   HOH     1      59.522  20.019  41.974  0.00  0.00    +0.000 OA
ENDROOT
TORSDOF 0
REMARK  Name = ../refined-set-2016/1n3i/1n3i_pocket.pdb
REMARK  180 active torsions:
REMARK  status: ('A' for Active; 'I' for Inactive)
REMARK    1  A    between atoms: _1  and  _3
REMARK    2  A    between atoms: _3  and  _4
REMARK    3  A    between atoms: _6  and  _8
REMARK    4  A    between atoms: _8  and  _9
REMARK    5  A    between atoms: _8  and  _11
REMARK    6  A    between atoms: _11  and  _12
REMARK    7  A    between atoms: _14  and  _16
REMARK    8  A    between atoms: _16  and  _17
REMARK    9  A    between atoms: _19  and  _21
REMARK   10  A    between atoms: _21  and  _22
REMARK   11  A    between atoms: _25  and  _27
REMARK   12  A    between atoms: _27  and  _28
REMARK   13  A    between atoms: _31  and  _33
REMARK   14  A    between atoms: _33  and  _34
REMARK   15  A    between atoms: _33  and  _36
REMARK   16  A    between atoms: _36  and  _37
REMARK   17  A    between atoms: _42  and  _44
REMARK   18  A    between atoms: _44  and  _45
REMARK   19  A    between atoms: _44  and  _47
REMARK   20  A    between atoms: _47  and  _48
REMARK   21  A    between atoms: _48  and  _49
REMARK   22  A    between atoms: _49  and  _50
REMARK   23  A    between atoms: _59  and  _61
REMARK   24  A    between atoms: _61  and  _62
REMARK   25  A    between atoms: _61  and  _64
REMARK   26  A    between atoms: _64  and  _65
REMARK   27  A    between atoms: _68  and  _70
REMARK   28  A    between atoms: _70  and  _71
REMARK   29  A    between atoms: _70  and  _73
REMARK   30  A    between atoms: _73  and  _74
REMARK   31  A    between atoms: _79  and  _81
REMARK   32  A    between atoms: _81  and  _82
REMARK   33  A    between atoms: _85  and  _87
REMARK   34  A    between atoms: _87  and  _88
REMARK   35  A    between atoms: _87  and  _90
REMARK   36  A    between atoms: _90  and  _91
REMARK   37  A    between atoms: _96  and  _97
REMARK   38  A    between atoms: _99  and  _101
REMARK   39  A    between atoms: _101  and  _102
REMARK   40  A    between atoms: _101  and  _104
REMARK   41  A    between atoms: _104  and  _105
REMARK   42  A    between atoms: _105  and  _106
REMARK   43  A    between atoms: _109  and  _111
REMARK   44  A    between atoms: _111  and  _112
REMARK   45  A    between atoms: _111  and  _114
REMARK   46  A    between atoms: _114  and  _115
REMARK   47  A    between atoms: _120  and  _122
REMARK   48  A    between atoms: _122  and  _123
REMARK   49  A    between atoms: _126  and  _128
REMARK   50  A    between atoms: _128  and  _129
REMARK   51  A    between atoms: _132  and  _134
REMARK   52  A    between atoms: _134  and  _135
REMARK   53  A    between atoms: _137  and  _139
REMARK   54  A    between atoms: _139  and  _140
REMARK   55  A    between atoms: _142  and  _144
REMARK   56  A    between atoms: _144  and  _145
REMARK   57  A    between atoms: _144  and  _147
REMARK   58  A    between atoms: _147  and  _148
REMARK   59  A    between atoms: _151  and  _153
REMARK   60  A    between atoms: _153  and  _154
REMARK   61  A    between atoms: _153  and  _156
REMARK   62  A    between atoms: _156  and  _157
REMARK   63  A    between atoms: _162  and  _163
REMARK   64  A    between atoms: _165  and  _167
REMARK   65  A    between atoms: _167  and  _168
REMARK   66  A    between atoms: _171  and  _173
REMARK   67  A    between atoms: _173  and  _174
REMARK   68  A    between atoms: _173  and  _176
REMARK   69  A    between atoms: _176  and  _177
REMARK   70  A    between atoms: _181  and  _182
REMARK   71  A    between atoms: _187  and  _189
REMARK   72  A    between atoms: _189  and  _190
REMARK   73  A    between atoms: _193  and  _194
REMARK   74  A    between atoms: _199  and  _201
REMARK   75  A    between atoms: _201  and  _202
REMARK   76  A    between atoms: _201  and  _204
REMARK   77  A    between atoms: _204  and  _205
REMARK   78  A    between atoms: _210  and  _212
REMARK   79  A    between atoms: _212  and  _213
REMARK   80  A    between atoms: _212  and  _215
REMARK   81  A    between atoms: _215  and  _216
REMARK   82  A    between atoms: _221  and  _222
REMARK   83  A    between atoms: _224  and  _226
REMARK   84  A    between atoms: _226  and  _227
REMARK   85  A    between atoms: _226  and  _229
REMARK   86  A    between atoms: _229  and  _230
REMARK   87  A    between atoms: _230  and  _231
REMARK   88  A    between atoms: _234  and  _236
REMARK   89  A    between atoms: _236  and  _237
REMARK   90  A    between atoms: _236  and  _239
REMARK   91  A    between atoms: _239  and  _240
REMARK   92  A    between atoms: _243  and  _245
REMARK   93  A    between atoms: _245  and  _246
REMARK   94  A    between atoms: _245  and  _248
REMARK   95  A    between atoms: _248  and  _249
REMARK   96  A    between atoms: _252  and  _254
REMARK   97  A    between atoms: _254  and  _255
REMARK   98  A    between atoms: _254  and  _257
REMARK   99  A    between atoms: _257  and  _258
REMARK  100  A    between atoms: _261  and  _263
REMARK  101  A    between atoms: _263  and  _264
REMARK  102  A    between atoms: _263  and  _266
REMARK  103  A    between atoms: _269  and  _271
REMARK  104  A    between atoms: _271  and  _272
REMARK  105  A    between atoms: _274  and  _276
REMARK  106  A    between atoms: _276  and  _277
REMARK  107  A    between atoms: _276  and  _279
REMARK  108  A    between atoms: _279  and  _280
REMARK  109  A    between atoms: _280  and  _281
REMARK  110  A    between atoms: _283  and  _285
REMARK  111  A    between atoms: _285  and  _286
REMARK  112  A    between atoms: _285  and  _288
REMARK  113  A    between atoms: _288  and  _289
REMARK  114  A    between atoms: _291  and  _293
REMARK  115  A    between atoms: _293  and  _294
REMARK  116  A    between atoms: _293  and  _296
REMARK  117  A    between atoms: _296  and  _297
REMARK  118  A    between atoms: _300  and  _302
REMARK  119  A    between atoms: _302  and  _303
REMARK  120  A    between atoms: _302  and  _305
REMARK  121  A    between atoms: _308  and  _310
REMARK  122  A    between atoms: _310  and  _311
REMARK  123  A    between atoms: _310  and  _313
REMARK  124  A    between atoms: _313  and  _314
REMARK  125  A    between atoms: _317  and  _319
REMARK  126  A    between atoms: _319  and  _320
REMARK  127  A    between atoms: _319  and  _322
REMARK  128  A    between atoms: _322  and  _323
REMARK  129  A    between atoms: _328  and  _330
REMARK  130  A    between atoms: _330  and  _331
REMARK  131  A    between atoms: _330  and  _333
REMARK  132  A    between atoms: _333  and  _334
REMARK  133  A    between atoms: _337  and  _339
REMARK  134  A    between atoms: _339  and  _340
REMARK  135  A    between atoms: _343  and  _345
REMARK  136  A    between atoms: _345  and  _346
REMARK  137  A    between atoms: _349  and  _351
REMARK  138  A    between atoms: _351  and  _352
REMARK  139  A    between atoms: _351  and  _354
REMARK  140  A    between atoms: _354  and  _355
REMARK  141  A    between atoms: _358  and  _360
REMARK  142  A    between atoms: _360  and  _361
REMARK  143  A    between atoms: _360  and  _363
REMARK  144  A    between atoms: _363  and  _364
REMARK  145  A    between atoms: _366  and  _368
REMARK  146  A    between atoms: _368  and  _369
REMARK  147  A    between atoms: _368  and  _371
REMARK  148  A    between atoms: _371  and  _372
REMARK  149  A    between atoms: _377  and  _379
REMARK  150  A    between atoms: _379  and  _380
REMARK  151  A    between atoms: _383  and  _385
REMARK  152  A    between atoms: _385  and  _386
REMARK  153  A    between atoms: _385  and  _388
REMARK  154  A    between atoms: _388  and  _389
REMARK  155  A    between atoms: _389  and  _390
REMARK  156  A    between atoms: _393  and  _395
REMARK  157  A    between atoms: _395  and  _396
REMARK  158  A    between atoms: _395  and  _398
REMARK  159  A    between atoms: _401  and  _403
REMARK  160  A    between atoms: _403  and  _404
REMARK  161  A    between atoms: _403  and  _406
REMARK  162  A    between atoms: _406  and  _407
REMARK  163  A    between atoms: _410  and  _412
REMARK  164  A    between atoms: _412  and  _413
REMARK  165  A    between atoms: _415  and  _417
REMARK  166  A    between atoms: _417  and  _418
REMARK  167  A    between atoms: _417  and  _420
REMARK  168  A    between atoms: _420  and  _421
REMARK  169  A    between atoms: _421  and  _422
REMARK  170  A    between atoms: _425  and  _427
REMARK  171  A    between atoms: _427  and  _428
REMARK  172  A    between atoms: _427  and  _430
REMARK  173  A    between atoms: _430  and  _431
REMARK  174  A    between atoms: _437  and  _439
REMARK  175  A    between atoms: _439  and  _440
REMARK  176  A    between atoms: _439  and  _442
REMARK  177  A    between atoms: _445  and  _447
REMARK  178  A    between atoms: _447  and  _448
REMARK  179  A    between atoms: _447  and  _450
REMARK  180  A    between atoms: _450  and  _451
REMARK                            x       y       z     vdW  Elec       q    Type
REMARK                         _______ _______ _______ _____ _____    ______ ____
ROOT
ATOM      1  O   HOH     1      55.334  23.719  47.851  0.00  0.00    +0.000 OA
ENDROOT
TORSDOF 0
REMARK  Name = ../refined-set-2016/1n3i/1n3i_pocket.pdb
REMARK  180 active torsions:
REMARK  status: ('A' for Active; 'I' for Inactive)
REMARK    1  A    between atoms: _1  and  _3
REMARK    2  A    between atoms: _3  and  _4
REMARK    3  A    between atoms: _6  and  _8
REMARK    4  A    between atoms: _8  and  _9
REMARK    5  A    between atoms: _8  and  _11
REMARK    6  A    between atoms: _11  and  _12
REMARK    7  A    between atoms: _14  and  _16
REMARK    8  A    between atoms: _16  and  _17
REMARK    9  A    between atoms: _19  and  _21
REMARK   10  A    between atoms: _21  and  _22
REMARK   11  A    between atoms: _25  and  _27
REMARK   12  A    between atoms: _27  and  _28
REMARK   13  A    between atoms: _31  and  _33
REMARK   14  A    between atoms: _33  and  _34
REMARK   15  A    between atoms: _33  and  _36
REMARK   16  A    between atoms: _36  and  _37
REMARK   17  A    between atoms: _42  and  _44
REMARK   18  A    between atoms: _44  and  _45
REMARK   19  A    between atoms: _44  and  _47
REMARK   20  A    between atoms: _47  and  _48
REMARK   21  A    between atoms: _48  and  _49
REMARK   22  A    between atoms: _49  and  _50
REMARK   23  A    between atoms: _59  and  _61
REMARK   24  A    between atoms: _61  and  _62
REMARK   25  A    between atoms: _61  and  _64
REMARK   26  A    between atoms: _64  and  _65
REMARK   27  A    between atoms: _68  and  _70
REMARK   28  A    between atoms: _70  and  _71
REMARK   29  A    between atoms: _70  and  _73
REMARK   30  A    between atoms: _73  and  _74
REMARK   31  A    between atoms: _79  and  _81
REMARK   32  A    between atoms: _81  and  _82
REMARK   33  A    between atoms: _85  and  _87
REMARK   34  A    between atoms: _87  and  _88
REMARK   35  A    between atoms: _87  and  _90
REMARK   36  A    between atoms: _90  and  _91
REMARK   37  A    between atoms: _96  and  _97
REMARK   38  A    between atoms: _99  and  _101
REMARK   39  A    between atoms: _101  and  _102
REMARK   40  A    between atoms: _101  and  _104
REMARK   41  A    between atoms: _104  and  _105
REMARK   42  A    between atoms: _105  and  _106
REMARK   43  A    between atoms: _109  and  _111
REMARK   44  A    between atoms: _111  and  _112
REMARK   45  A    between atoms: _111  and  _114
REMARK   46  A    between atoms: _114  and  _115
REMARK   47  A    between atoms: _120  and  _122
REMARK   48  A    between atoms: _122  and  _123
REMARK   49  A    between atoms: _126  and  _128
REMARK   50  A    between atoms: _128  and  _129
REMARK   51  A    between atoms: _132  and  _134
REMARK   52  A    between atoms: _134  and  _135
REMARK   53  A    between atoms: _137  and  _139
REMARK   54  A    between atoms: _139  and  _140
REMARK   55  A    between atoms: _142  and  _144
REMARK   56  A    between atoms: _144  and  _145
REMARK   57  A    between atoms: _144  and  _147
REMARK   58  A    between atoms: _147  and  _148
REMARK   59  A    between atoms: _151  and  _153
REMARK   60  A    between atoms: _153  and  _154
REMARK   61  A    between atoms: _153  and  _156
REMARK   62  A    between atoms: _156  and  _157
REMARK   63  A    between atoms: _162  and  _163
REMARK   64  A    between atoms: _165  and  _167
REMARK   65  A    between atoms: _167  and  _168
REMARK   66  A    between atoms: _171  and  _173
REMARK   67  A    between atoms: _173  and  _174
REMARK   68  A    between atoms: _173  and  _176
REMARK   69  A    between atoms: _176  and  _177
REMARK   70  A    between atoms: _181  and  _182
REMARK   71  A    between atoms: _187  and  _189
REMARK   72  A    between atoms: _189  and  _190
REMARK   73  A    between atoms: _193  and  _194
REMARK   74  A    between atoms: _199  and  _201
REMARK   75  A    between atoms: _201  and  _202
REMARK   76  A    between atoms: _201  and  _204
REMARK   77  A    between atoms: _204  and  _205
REMARK   78  A    between atoms: _210  and  _212
REMARK   79  A    between atoms: _212  and  _213
REMARK   80  A    between atoms: _212  and  _215
REMARK   81  A    between atoms: _215  and  _216
REMARK   82  A    between atoms: _221  and  _222
REMARK   83  A    between atoms: _224  and  _226
REMARK   84  A    between atoms: _226  and  _227
REMARK   85  A    between atoms: _226  and  _229
REMARK   86  A    between atoms: _229  and  _230
REMARK   87  A    between atoms: _230  and  _231
REMARK   88  A    between atoms: _234  and  _236
REMARK   89  A    between atoms: _236  and  _237
REMARK   90  A    between atoms: _236  and  _239
REMARK   91  A    between atoms: _239  and  _240
REMARK   92  A    between atoms: _243  and  _245
REMARK   93  A    between atoms: _245  and  _246
REMARK   94  A    between atoms: _245  and  _248
REMARK   95  A    between atoms: _248  and  _249
REMARK   96  A    between atoms: _252  and  _254
REMARK   97  A    between atoms: _254  and  _255
REMARK   98  A    between atoms: _254  and  _257
REMARK   99  A    between atoms: _257  and  _258
REMARK  100  A    between atoms: _261  and  _263
REMARK  101  A    between atoms: _263  and  _264
REMARK  102  A    between atoms: _263  and  _266
REMARK  103  A    between atoms: _269  and  _271
REMARK  104  A    between atoms: _271  and  _272
REMARK  105  A    between atoms: _274  and  _276
REMARK  106  A    between atoms: _276  and  _277
REMARK  107  A    between atoms: _276  and  _279
REMARK  108  A    between atoms: _279  and  _280
REMARK  109  A    between atoms: _280  and  _281
REMARK  110  A    between atoms: _283  and  _285
REMARK  111  A    between atoms: _285  and  _286
REMARK  112  A    between atoms: _285  and  _288
REMARK  113  A    between atoms: _288  and  _289
REMARK  114  A    between atoms: _291  and  _293
REMARK  115  A    between atoms: _293  and  _294
REMARK  116  A    between atoms: _293  and  _296
REMARK  117  A    between atoms: _296  and  _297
REMARK  118  A    between atoms: _300  and  _302
REMARK  119  A    between atoms: _302  and  _303
REMARK  120  A    between atoms: _302  and  _305
REMARK  121  A    between atoms: _308  and  _310
REMARK  122  A    between atoms: _310  and  _311
REMARK  123  A    between atoms: _310  and  _313
REMARK  124  A    between atoms: _313  and  _314
REMARK  125  A    between atoms: _317  and  _319
REMARK  126  A    between atoms: _319  and  _320
REMARK  127  A    between atoms: _319  and  _322
REMARK  128  A    between atoms: _322  and  _323
REMARK  129  A    between atoms: _328  and  _330
REMARK  130  A    between atoms: _330  and  _331
REMARK  131  A    between atoms: _330  and  _333
REMARK  132  A    between atoms: _333  and  _334
REMARK  133  A    between atoms: _337  and  _339
REMARK  134  A    between atoms: _339  and  _340
REMARK  135  A    between atoms: _343  and  _345
REMARK  136  A    between atoms: _345  and  _346
REMARK  137  A    between atoms: _349  and  _351
REMARK  138  A    between atoms: _351  and  _352
REMARK  139  A    between atoms: _351  and  _354
REMARK  140  A    between atoms: _354  and  _355
REMARK  141  A    between atoms: _358  and  _360
REMARK  142  A    between atoms: _360  and  _361
REMARK  143  A    between atoms: _360  and  _363
REMARK  144  A    between atoms: _363  and  _364
REMARK  145  A    between atoms: _366  and  _368
REMARK  146  A    between atoms: _368  and  _369
REMARK  147  A    between atoms: _368  and  _371
REMARK  148  A    between atoms: _371  and  _372
REMARK  149  A    between atoms: _377  and  _379
REMARK  150  A    between atoms: _379  and  _380
REMARK  151  A    between atoms: _383  and  _385
REMARK  152  A    between atoms: _385  and  _386
REMARK  153  A    between atoms: _385  and  _388
REMARK  154  A    between atoms: _388  and  _389
REMARK  155  A    between atoms: _389  and  _390
REMARK  156  A    between atoms: _393  and  _395
REMARK  157  A    between atoms: _395  and  _396
REMARK  158  A    between atoms: _395  and  _398
REMARK  159  A    between atoms: _401  and  _403
REMARK  160  A    between atoms: _403  and  _404
REMARK  161  A    between atoms: _403  and  _406
REMARK  162  A    between atoms: _406  and  _407
REMARK  163  A    between atoms: _410  and  _412
REMARK  164  A    between atoms: _412  and  _413
REMARK  165  A    between atoms: _415  and  _417
REMARK  166  A    between atoms: _417  and  _418
REMARK  167  A    between atoms: _417  and  _420
REMARK  168  A    between atoms: _420  and  _421
REMARK  169  A    between atoms: _421  and  _422
REMARK  170  A    between atoms: _425  and  _427
REMARK  171  A    between atoms: _427  and  _428
REMARK  172  A    between atoms: _427  and  _430
REMARK  173  A    between atoms: _430  and  _431
REMARK  174  A    between atoms: _437  and  _439
REMARK  175  A    between atoms: _439  and  _440
REMARK  176  A    between atoms: _439  and  _442
REMARK  177  A    between atoms: _445  and  _447
REMARK  178  A    between atoms: _447  and  _448
REMARK  179  A    between atoms: _447  and  _450
REMARK  180  A    between atoms: _450  and  _451
REMARK                            x       y       z     vdW  Elec       q    Type
REMARK                         _______ _______ _______ _____ _____    ______ ____
ROOT
ATOM      1  O   HOH     1      47.404  23.748  40.428  0.00  0.00    +0.000 OA
ENDROOT
TORSDOF 0
REMARK  Name = ../refined-set-2016/1n3i/1n3i_pocket.pdb
REMARK  180 active torsions:
REMARK  status: ('A' for Active; 'I' for Inactive)
REMARK    1  A    between atoms: _1  and  _3
REMARK    2  A    between atoms: _3  and  _4
REMARK    3  A    between atoms: _6  and  _8
REMARK    4  A    between atoms: _8  and  _9
REMARK    5  A    between atoms: _8  and  _11
REMARK    6  A    between atoms: _11  and  _12
REMARK    7  A    between atoms: _14  and  _16
REMARK    8  A    between atoms: _16  and  _17
REMARK    9  A    between atoms: _19  and  _21
REMARK   10  A    between atoms: _21  and  _22
REMARK   11  A    between atoms: _25  and  _27
REMARK   12  A    between atoms: _27  and  _28
REMARK   13  A    between atoms: _31  and  _33
REMARK   14  A    between atoms: _33  and  _34
REMARK   15  A    between atoms: _33  and  _36
REMARK   16  A    between atoms: _36  and  _37
REMARK   17  A    between atoms: _42  and  _44
REMARK   18  A    between atoms: _44  and  _45
REMARK   19  A    between atoms: _44  and  _47
REMARK   20  A    between atoms: _47  and  _48
REMARK   21  A    between atoms: _48  and  _49
REMARK   22  A    between atoms: _49  and  _50
REMARK   23  A    between atoms: _59  and  _61
REMARK   24  A    between atoms: _61  and  _62
REMARK   25  A    between atoms: _61  and  _64
REMARK   26  A    between atoms: _64  and  _65
REMARK   27  A    between atoms: _68  and  _70
REMARK   28  A    between atoms: _70  and  _71
REMARK   29  A    between atoms: _70  and  _73
REMARK   30  A    between atoms: _73  and  _74
REMARK   31  A    between atoms: _79  and  _81
REMARK   32  A    between atoms: _81  and  _82
REMARK   33  A    between atoms: _85  and  _87
REMARK   34  A    between atoms: _87  and  _88
REMARK   35  A    between atoms: _87  and  _90
REMARK   36  A    between atoms: _90  and  _91
REMARK   37  A    between atoms: _96  and  _97
REMARK   38  A    between atoms: _99  and  _101
REMARK   39  A    between atoms: _101  and  _102
REMARK   40  A    between atoms: _101  and  _104
REMARK   41  A    between atoms: _104  and  _105
REMARK   42  A    between atoms: _105  and  _106
REMARK   43  A    between atoms: _109  and  _111
REMARK   44  A    between atoms: _111  and  _112
REMARK   45  A    between atoms: _111  and  _114
REMARK   46  A    between atoms: _114  and  _115
REMARK   47  A    between atoms: _120  and  _122
REMARK   48  A    between atoms: _122  and  _123
REMARK   49  A    between atoms: _126  and  _128
REMARK   50  A    between atoms: _128  and  _129
REMARK   51  A    between atoms: _132  and  _134
REMARK   52  A    between atoms: _134  and  _135
REMARK   53  A    between atoms: _137  and  _139
REMARK   54  A    between atoms: _139  and  _140
REMARK   55  A    between atoms: _142  and  _144
REMARK   56  A    between atoms: _144  and  _145
REMARK   57  A    between atoms: _144  and  _147
REMARK   58  A    between atoms: _147  and  _148
REMARK   59  A    between atoms: _151  and  _153
REMARK   60  A    between atoms: _153  and  _154
REMARK   61  A    between atoms: _153  and  _156
REMARK   62  A    between atoms: _156  and  _157
REMARK   63  A    between atoms: _162  and  _163
REMARK   64  A    between atoms: _165  and  _167
REMARK   65  A    between atoms: _167  and  _168
REMARK   66  A    between atoms: _171  and  _173
REMARK   67  A    between atoms: _173  and  _174
REMARK   68  A    between atoms: _173  and  _176
REMARK   69  A    between atoms: _176  and  _177
REMARK   70  A    between atoms: _181  and  _182
REMARK   71  A    between atoms: _187  and  _189
REMARK   72  A    between atoms: _189  and  _190
REMARK   73  A    between atoms: _193  and  _194
REMARK   74  A    between atoms: _199  and  _201
REMARK   75  A    between atoms: _201  and  _202
REMARK   76  A    between atoms: _201  and  _204
REMARK   77  A    between atoms: _204  and  _205
REMARK   78  A    between atoms: _210  and  _212
REMARK   79  A    between atoms: _212  and  _213
REMARK   80  A    between atoms: _212  and  _215
REMARK   81  A    between atoms: _215  and  _216
REMARK   82  A    between atoms: _221  and  _222
REMARK   83  A    between atoms: _224  and  _226
REMARK   84  A    between atoms: _226  and  _227
REMARK   85  A    between atoms: _226  and  _229
REMARK   86  A    between atoms: _229  and  _230
REMARK   87  A    between atoms: _230  and  _231
REMARK   88  A    between atoms: _234  and  _236
REMARK   89  A    between atoms: _236  and  _237
REMARK   90  A    between atoms: _236  and  _239
REMARK   91  A    between atoms: _239  and  _240
REMARK   92  A    between atoms: _243  and  _245
REMARK   93  A    between atoms: _245  and  _246
REMARK   94  A    between atoms: _245  and  _248
REMARK   95  A    between atoms: _248  and  _249
REMARK   96  A    between atoms: _252  and  _254
REMARK   97  A    between atoms: _254  and  _255
REMARK   98  A    between atoms: _254  and  _257
REMARK   99  A    between atoms: _257  and  _258
REMARK  100  A    between atoms: _261  and  _263
REMARK  101  A    between atoms: _263  and  _264
REMARK  102  A    between atoms: _263  and  _266
REMARK  103  A    between atoms: _269  and  _271
REMARK  104  A    between atoms: _271  and  _272
REMARK  105  A    between atoms: _274  and  _276
REMARK  106  A    between atoms: _276  and  _277
REMARK  107  A    between atoms: _276  and  _279
REMARK  108  A    between atoms: _279  and  _280
REMARK  109  A    between atoms: _280  and  _281
REMARK  110  A    between atoms: _283  and  _285
REMARK  111  A    between atoms: _285  and  _286
REMARK  112  A    between atoms: _285  and  _288
REMARK  113  A    between atoms: _288  and  _289
REMARK  114  A    between atoms: _291  and  _293
REMARK  115  A    between atoms: _293  and  _294
REMARK  116  A    between atoms: _293  and  _296
REMARK  117  A    between atoms: _296  and  _297
REMARK  118  A    between atoms: _300  and  _302
REMARK  119  A    between atoms: _302  and  _303
REMARK  120  A    between atoms: _302  and  _305
REMARK  121  A    between atoms: _308  and  _310
REMARK  122  A    between atoms: _310  and  _311
REMARK  123  A    between atoms: _310  and  _313
REMARK  124  A    between atoms: _313  and  _314
REMARK  125  A    between atoms: _317  and  _319
REMARK  126  A    between atoms: _319  and  _320
REMARK  127  A    between atoms: _319  and  _322
REMARK  128  A    between atoms: _322  and  _323
REMARK  129  A    between atoms: _328  and  _330
REMARK  130  A    between atoms: _330  and  _331
REMARK  131  A    between atoms: _330  and  _333
REMARK  132  A    between atoms: _333  and  _334
REMARK  133  A    between atoms: _337  and  _339
REMARK  134  A    between atoms: _339  and  _340
REMARK  135  A    between atoms: _343  and  _345
REMARK  136  A    between atoms: _345  and  _346
REMARK  137  A    between atoms: _349  and  _351
REMARK  138  A    between atoms: _351  and  _352
REMARK  139  A    between atoms: _351  and  _354
REMARK  140  A    between atoms: _354  and  _355
REMARK  141  A    between atoms: _358  and  _360
REMARK  142  A    between atoms: _360  and  _361
REMARK  143  A    between atoms: _360  and  _363
REMARK  144  A    between atoms: _363  and  _364
REMARK  145  A    between atoms: _366  and  _368
REMARK  146  A    between atoms: _368  and  _369
REMARK  147  A    between atoms: _368  and  _371
REMARK  148  A    between atoms: _371  and  _372
REMARK  149  A    between atoms: _377  and  _379
REMARK  150  A    between atoms: _379  and  _380
REMARK  151  A    between atoms: _383  and  _385
REMARK  152  A    between atoms: _385  and  _386
REMARK  153  A    between atoms: _385  and  _388
REMARK  154  A    between atoms: _388  and  _389
REMARK  155  A    between atoms: _389  and  _390
REMARK  156  A    between atoms: _393  and  _395
REMARK  157  A    between atoms: _395  and  _396
REMARK  158  A    between atoms: _395  and  _398
REMARK  159  A    between atoms: _401  and  _403
REMARK  160  A    between atoms: _403  and  _404
REMARK  161  A    between atoms: _403  and  _406
REMARK  162  A    between atoms: _406  and  _407
REMARK  163  A    between atoms: _410  and  _412
REMARK  164  A    between atoms: _412  and  _413
REMARK  165  A    between atoms: _415  and  _417
REMARK  166  A    between atoms: _417  and  _418
REMARK  167  A    between atoms: _417  and  _420
REMARK  168  A    between atoms: _420  and  _421
REMARK  169  A    between atoms: _421  and  _422
REMARK  170  A    between atoms: _425  and  _427
REMARK  171  A    between atoms: _427  and  _428
REMARK  172  A    between atoms: _427  and  _430
REMARK  173  A    between atoms: _430  and  _431
REMARK  174  A    between atoms: _437  and  _439
REMARK  175  A    between atoms: _439  and  _440
REMARK  176  A    between atoms: _439  and  _442
REMARK  177  A    between atoms: _445  and  _447
REMARK  178  A    between atoms: _447  and  _448
REMARK  179  A    between atoms: _447  and  _450
REMARK  180  A    between atoms: _450  and  _451
REMARK                            x       y       z     vdW  Elec       q    Type
REMARK                         _______ _______ _______ _____ _____    ______ ____
ROOT
ATOM      1  O   HOH     1      51.680   7.456  46.237  0.00  0.00    +0.000 OA
ENDROOT
TORSDOF 0
REMARK  Name = ../refined-set-2016/1n3i/1n3i_pocket.pdb
REMARK  180 active torsions:
REMARK  status: ('A' for Active; 'I' for Inactive)
REMARK    1  A    between atoms: _1  and  _3
REMARK    2  A    between atoms: _3  and  _4
REMARK    3  A    between atoms: _6  and  _8
REMARK    4  A    between atoms: _8  and  _9
REMARK    5  A    between atoms: _8  and  _11
REMARK    6  A    between atoms: _11  and  _12
REMARK    7  A    between atoms: _14  and  _16
REMARK    8  A    between atoms: _16  and  _17
REMARK    9  A    between atoms: _19  and  _21
REMARK   10  A    between atoms: _21  and  _22
REMARK   11  A    between atoms: _25  and  _27
REMARK   12  A    between atoms: _27  and  _28
REMARK   13  A    between atoms: _31  and  _33
REMARK   14  A    between atoms: _33  and  _34
REMARK   15  A    between atoms: _33  and  _36
REMARK   16  A    between atoms: _36  and  _37
REMARK   17  A    between atoms: _42  and  _44
REMARK   18  A    between atoms: _44  and  _45
REMARK   19  A    between atoms: _44  and  _47
REMARK   20  A    between atoms: _47  and  _48
REMARK   21  A    between atoms: _48  and  _49
REMARK   22  A    between atoms: _49  and  _50
REMARK   23  A    between atoms: _59  and  _61
REMARK   24  A    between atoms: _61  and  _62
REMARK   25  A    between atoms: _61  and  _64
REMARK   26  A    between atoms: _64  and  _65
REMARK   27  A    between atoms: _68  and  _70
REMARK   28  A    between atoms: _70  and  _71
REMARK   29  A    between atoms: _70  and  _73
REMARK   30  A    between atoms: _73  and  _74
REMARK   31  A    between atoms: _79  and  _81
REMARK   32  A    between atoms: _81  and  _82
REMARK   33  A    between atoms: _85  and  _87
REMARK   34  A    between atoms: _87  and  _88
REMARK   35  A    between atoms: _87  and  _90
REMARK   36  A    between atoms: _90  and  _91
REMARK   37  A    between atoms: _96  and  _97
REMARK   38  A    between atoms: _99  and  _101
REMARK   39  A    between atoms: _101  and  _102
REMARK   40  A    between atoms: _101  and  _104
REMARK   41  A    between atoms: _104  and  _105
REMARK   42  A    between atoms: _105  and  _106
REMARK   43  A    between atoms: _109  and  _111
REMARK   44  A    between atoms: _111  and  _112
REMARK   45  A    between atoms: _111  and  _114
REMARK   46  A    between atoms: _114  and  _115
REMARK   47  A    between atoms: _120  and  _122
REMARK   48  A    between atoms: _122  and  _123
REMARK   49  A    between atoms: _126  and  _128
REMARK   50  A    between atoms: _128  and  _129
REMARK   51  A    between atoms: _132  and  _134
REMARK   52  A    between atoms: _134  and  _135
REMARK   53  A    between atoms: _137  and  _139
REMARK   54  A    between atoms: _139  and  _140
REMARK   55  A    between atoms: _142  and  _144
REMARK   56  A    between atoms: _144  and  _145
REMARK   57  A    between atoms: _144  and  _147
REMARK   58  A    between atoms: _147  and  _148
REMARK   59  A    between atoms: _151  and  _153
REMARK   60  A    between atoms: _153  and  _154
REMARK   61  A    between atoms: _153  and  _156
REMARK   62  A    between atoms: _156  and  _157
REMARK   63  A    between atoms: _162  and  _163
REMARK   64  A    between atoms: _165  and  _167
REMARK   65  A    between atoms: _167  and  _168
REMARK   66  A    between atoms: _171  and  _173
REMARK   67  A    between atoms: _173  and  _174
REMARK   68  A    between atoms: _173  and  _176
REMARK   69  A    between atoms: _176  and  _177
REMARK   70  A    between atoms: _181  and  _182
REMARK   71  A    between atoms: _187  and  _189
REMARK   72  A    between atoms: _189  and  _190
REMARK   73  A    between atoms: _193  and  _194
REMARK   74  A    between atoms: _199  and  _201
REMARK   75  A    between atoms: _201  and  _202
REMARK   76  A    between atoms: _201  and  _204
REMARK   77  A    between atoms: _204  and  _205
REMARK   78  A    between atoms: _210  and  _212
REMARK   79  A    between atoms: _212  and  _213
REMARK   80  A    between atoms: _212  and  _215
REMARK   81  A    between atoms: _215  and  _216
REMARK   82  A    between atoms: _221  and  _222
REMARK   83  A    between atoms: _224  and  _226
REMARK   84  A    between atoms: _226  and  _227
REMARK   85  A    between atoms: _226  and  _229
REMARK   86  A    between atoms: _229  and  _230
REMARK   87  A    between atoms: _230  and  _231
REMARK   88  A    between atoms: _234  and  _236
REMARK   89  A    between atoms: _236  and  _237
REMARK   90  A    between atoms: _236  and  _239
REMARK   91  A    between atoms: _239  and  _240
REMARK   92  A    between atoms: _243  and  _245
REMARK   93  A    between atoms: _245  and  _246
REMARK   94  A    between atoms: _245  and  _248
REMARK   95  A    between atoms: _248  and  _249
REMARK   96  A    between atoms: _252  and  _254
REMARK   97  A    between atoms: _254  and  _255
REMARK   98  A    between atoms: _254  and  _257
REMARK   99  A    between atoms: _257  and  _258
REMARK  100  A    between atoms: _261  and  _263
REMARK  101  A    between atoms: _263  and  _264
REMARK  102  A    between atoms: _263  and  _266
REMARK  103  A    between atoms: _269  and  _271
REMARK  104  A    between atoms: _271  and  _272
REMARK  105  A    between atoms: _274  and  _276
REMARK  106  A    between atoms: _276  and  _277
REMARK  107  A    between atoms: _276  and  _279
REMARK  108  A    between atoms: _279  and  _280
REMARK  109  A    between atoms: _280  and  _281
REMARK  110  A    between atoms: _283  and  _285
REMARK  111  A    between atoms: _285  and  _286
REMARK  112  A    between atoms: _285  and  _288
REMARK  113  A    between atoms: _288  and  _289
REMARK  114  A    between atoms: _291  and  _293
REMARK  115  A    between atoms: _293  and  _294
REMARK  116  A    between atoms: _293  and  _296
REMARK  117  A    between atoms: _296  and  _297
REMARK  118  A    between atoms: _300  and  _302
REMARK  119  A    between atoms: _302  and  _303
REMARK  120  A    between atoms: _302  and  _305
REMARK  121  A    between atoms: _308  and  _310
REMARK  122  A    between atoms: _310  and  _311
REMARK  123  A    between atoms: _310  and  _313
REMARK  124  A    between atoms: _313  and  _314
REMARK  125  A    between atoms: _317  and  _319
REMARK  126  A    between atoms: _319  and  _320
REMARK  127  A    between atoms: _319  and  _322
REMARK  128  A    between atoms: _322  and  _323
REMARK  129  A    between atoms: _328  and  _330
REMARK  130  A    between atoms: _330  and  _331
REMARK  131  A    between atoms: _330  and  _333
REMARK  132  A    between atoms: _333  and  _334
REMARK  133  A    between atoms: _337  and  _339
REMARK  134  A    between atoms: _339  and  _340
REMARK  135  A    between atoms: _343  and  _345
REMARK  136  A    between atoms: _345  and  _346
REMARK  137  A    between atoms: _349  and  _351
REMARK  138  A    between atoms: _351  and  _352
REMARK  139  A    between atoms: _351  and  _354
REMARK  140  A    between atoms: _354  and  _355
REMARK  141  A    between atoms: _358  and  _360
REMARK  142  A    between atoms: _360  and  _361
REMARK  143  A    between atoms: _360  and  _363
REMARK  144  A    between atoms: _363  and  _364
REMARK  145  A    between atoms: _366  and  _368
REMARK  146  A    between atoms: _368  and  _369
REMARK  147  A    between atoms: _368  and  _371
REMARK  148  A    between atoms: _371  and  _372
REMARK  149  A    between atoms: _377  and  _379
REMARK  150  A    between atoms: _379  and  _380
REMARK  151  A    between atoms: _383  and  _385
REMARK  152  A    between atoms: _385  and  _386
REMARK  153  A    between atoms: _385  and  _388
REMARK  154  A    between atoms: _388  and  _389
REMARK  155  A    between atoms: _389  and  _390
REMARK  156  A    between atoms: _393  and  _395
REMARK  157  A    between atoms: _395  and  _396
REMARK  158  A    between atoms: _395  and  _398
REMARK  159  A    between atoms: _401  and  _403
REMARK  160  A    between atoms: _403  and  _404
REMARK  161  A    between atoms: _403  and  _406
REMARK  162  A    between atoms: _406  and  _407
REMARK  163  A    between atoms: _410  and  _412
REMARK  164  A    between atoms: _412  and  _413
REMARK  165  A    between atoms: _415  and  _417
REMARK  166  A    between atoms: _417  and  _418
REMARK  167  A    between atoms: _417  and  _420
REMARK  168  A    between atoms: _420  and  _421
REMARK  169  A    between atoms: _421  and  _422
REMARK  170  A    between atoms: _425  and  _427
REMARK  171  A    between atoms: _427  and  _428
REMARK  172  A    between atoms: _427  and  _430
REMARK  173  A    between atoms: _430  and  _431
REMARK  174  A    between atoms: _437  and  _439
REMARK  175  A    between atoms: _439  and  _440
REMARK  176  A    between atoms: _439  and  _442
REMARK  177  A    between atoms: _445  and  _447
REMARK  178  A    between atoms: _447  and  _448
REMARK  179  A    between atoms: _447  and  _450
REMARK  180  A    between atoms: _450  and  _451
REMARK                            x       y       z     vdW  Elec       q    Type
REMARK                         _______ _______ _______ _____ _____    ______ ____
ROOT
ATOM      1  O   HOH     1      51.128  17.712  36.000  0.00  0.00    +0.000 OA
ENDROOT
TORSDOF 0
REMARK  Name = ../refined-set-2016/1n3i/1n3i_pocket.pdb
REMARK  180 active torsions:
REMARK  status: ('A' for Active; 'I' for Inactive)
REMARK    1  A    between atoms: _1  and  _3
REMARK    2  A    between atoms: _3  and  _4
REMARK    3  A    between atoms: _6  and  _8
REMARK    4  A    between atoms: _8  and  _9
REMARK    5  A    between atoms: _8  and  _11
REMARK    6  A    between atoms: _11  and  _12
REMARK    7  A    between atoms: _14  and  _16
REMARK    8  A    between atoms: _16  and  _17
REMARK    9  A    between atoms: _19  and  _21
REMARK   10  A    between atoms: _21  and  _22
REMARK   11  A    between atoms: _25  and  _27
REMARK   12  A    between atoms: _27  and  _28
REMARK   13  A    between atoms: _31  and  _33
REMARK   14  A    between atoms: _33  and  _34
REMARK   15  A    between atoms: _33  and  _36
REMARK   16  A    between atoms: _36  and  _37
REMARK   17  A    between atoms: _42  and  _44
REMARK   18  A    between atoms: _44  and  _45
REMARK   19  A    between atoms: _44  and  _47
REMARK   20  A    between atoms: _47  and  _48
REMARK   21  A    between atoms: _48  and  _49
REMARK   22  A    between atoms: _49  and  _50
REMARK   23  A    between atoms: _59  and  _61
REMARK   24  A    between atoms: _61  and  _62
REMARK   25  A    between atoms: _61  and  _64
REMARK   26  A    between atoms: _64  and  _65
REMARK   27  A    between atoms: _68  and  _70
REMARK   28  A    between atoms: _70  and  _71
REMARK   29  A    between atoms: _70  and  _73
REMARK   30  A    between atoms: _73  and  _74
REMARK   31  A    between atoms: _79  and  _81
REMARK   32  A    between atoms: _81  and  _82
REMARK   33  A    between atoms: _85  and  _87
REMARK   34  A    between atoms: _87  and  _88
REMARK   35  A    between atoms: _87  and  _90
REMARK   36  A    between atoms: _90  and  _91
REMARK   37  A    between atoms: _96  and  _97
REMARK   38  A    between atoms: _99  and  _101
REMARK   39  A    between atoms: _101  and  _102
REMARK   40  A    between atoms: _101  and  _104
REMARK   41  A    between atoms: _104  and  _105
REMARK   42  A    between atoms: _105  and  _106
REMARK   43  A    between atoms: _109  and  _111
REMARK   44  A    between atoms: _111  and  _112
REMARK   45  A    between atoms: _111  and  _114
REMARK   46  A    between atoms: _114  and  _115
REMARK   47  A    between atoms: _120  and  _122
REMARK   48  A    between atoms: _122  and  _123
REMARK   49  A    between atoms: _126  and  _128
REMARK   50  A    between atoms: _128  and  _129
REMARK   51  A    between atoms: _132  and  _134
REMARK   52  A    between atoms: _134  and  _135
REMARK   53  A    between atoms: _137  and  _139
REMARK   54  A    between atoms: _139  and  _140
REMARK   55  A    between atoms: _142  and  _144
REMARK   56  A    between atoms: _144  and  _145
REMARK   57  A    between atoms: _144  and  _147
REMARK   58  A    between atoms: _147  and  _148
REMARK   59  A    between atoms: _151  and  _153
REMARK   60  A    between atoms: _153  and  _154
REMARK   61  A    between atoms: _153  and  _156
REMARK   62  A    between atoms: _156  and  _157
REMARK   63  A    between atoms: _162  and  _163
REMARK   64  A    between atoms: _165  and  _167
REMARK   65  A    between atoms: _167  and  _168
REMARK   66  A    between atoms: _171  and  _173
REMARK   67  A    between atoms: _173  and  _174
REMARK   68  A    between atoms: _173  and  _176
REMARK   69  A    between atoms: _176  and  _177
REMARK   70  A    between atoms: _181  and  _182
REMARK   71  A    between atoms: _187  and  _189
REMARK   72  A    between atoms: _189  and  _190
REMARK   73  A    between atoms: _193  and  _194
REMARK   74  A    between atoms: _199  and  _201
REMARK   75  A    between atoms: _201  and  _202
REMARK   76  A    between atoms: _201  and  _204
REMARK   77  A    between atoms: _204  and  _205
REMARK   78  A    between atoms: _210  and  _212
REMARK   79  A    between atoms: _212  and  _213
REMARK   80  A    between atoms: _212  and  _215
REMARK   81  A    between atoms: _215  and  _216
REMARK   82  A    between atoms: _221  and  _222
REMARK   83  A    between atoms: _224  and  _226
REMARK   84  A    between atoms: _226  and  _227
REMARK   85  A    between atoms: _226  and  _229
REMARK   86  A    between atoms: _229  and  _230
REMARK   87  A    between atoms: _230  and  _231
REMARK   88  A    between atoms: _234  and  _236
REMARK   89  A    between atoms: _236  and  _237
REMARK   90  A    between atoms: _236  and  _239
REMARK   91  A    between atoms: _239  and  _240
REMARK   92  A    between atoms: _243  and  _245
REMARK   93  A    between atoms: _245  and  _246
REMARK   94  A    between atoms: _245  and  _248
REMARK   95  A    between atoms: _248  and  _249
REMARK   96  A    between atoms: _252  and  _254
REMARK   97  A    between atoms: _254  and  _255
REMARK   98  A    between atoms: _254  and  _257
REMARK   99  A    between atoms: _257  and  _258
REMARK  100  A    between atoms: _261  and  _263
REMARK  101  A    between atoms: _263  and  _264
REMARK  102  A    between atoms: _263  and  _266
REMARK  103  A    between atoms: _269  and  _271
REMARK  104  A    between atoms: _271  and  _272
REMARK  105  A    between atoms: _274  and  _276
REMARK  106  A    between atoms: _276  and  _277
REMARK  107  A    between atoms: _276  and  _279
REMARK  108  A    between atoms: _279  and  _280
REMARK  109  A    between atoms: _280  and  _281
REMARK  110  A    between atoms: _283  and  _285
REMARK  111  A    between atoms: _285  and  _286
REMARK  112  A    between atoms: _285  and  _288
REMARK  113  A    between atoms: _288  and  _289
REMARK  114  A    between atoms: _291  and  _293
REMARK  115  A    between atoms: _293  and  _294
REMARK  116  A    between atoms: _293  and  _296
REMARK  117  A    between atoms: _296  and  _297
REMARK  118  A    between atoms: _300  and  _302
REMARK  119  A    between atoms: _302  and  _303
REMARK  120  A    between atoms: _302  and  _305
REMARK  121  A    between atoms: _308  and  _310
REMARK  122  A    between atoms: _310  and  _311
REMARK  123  A    between atoms: _310  and  _313
REMARK  124  A    between atoms: _313  and  _314
REMARK  125  A    between atoms: _317  and  _319
REMARK  126  A    between atoms: _319  and  _320
REMARK  127  A    between atoms: _319  and  _322
REMARK  128  A    between atoms: _322  and  _323
REMARK  129  A    between atoms: _328  and  _330
REMARK  130  A    between atoms: _330  and  _331
REMARK  131  A    between atoms: _330  and  _333
REMARK  132  A    between atoms: _333  and  _334
REMARK  133  A    between atoms: _337  and  _339
REMARK  134  A    between atoms: _339  and  _340
REMARK  135  A    between atoms: _343  and  _345
REMARK  136  A    between atoms: _345  and  _346
REMARK  137  A    between atoms: _349  and  _351
REMARK  138  A    between atoms: _351  and  _352
REMARK  139  A    between atoms: _351  and  _354
REMARK  140  A    between atoms: _354  and  _355
REMARK  141  A    between atoms: _358  and  _360
REMARK  142  A    between atoms: _360  and  _361
REMARK  143  A    between atoms: _360  and  _363
REMARK  144  A    between atoms: _363  and  _364
REMARK  145  A    between atoms: _366  and  _368
REMARK  146  A    between atoms: _368  and  _369
REMARK  147  A    between atoms: _368  and  _371
REMARK  148  A    between atoms: _371  and  _372
REMARK  149  A    between atoms: _377  and  _379
REMARK  150  A    between atoms: _379  and  _380
REMARK  151  A    between atoms: _383  and  _385
REMARK  152  A    between atoms: _385  and  _386
REMARK  153  A    between atoms: _385  and  _388
REMARK  154  A    between atoms: _388  and  _389
REMARK  155  A    between atoms: _389  and  _390
REMARK  156  A    between atoms: _393  and  _395
REMARK  157  A    between atoms: _395  and  _396
REMARK  158  A    between atoms: _395  and  _398
REMARK  159  A    between atoms: _401  and  _403
REMARK  160  A    between atoms: _403  and  _404
REMARK  161  A    between atoms: _403  and  _406
REMARK  162  A    between atoms: _406  and  _407
REMARK  163  A    between atoms: _410  and  _412
REMARK  164  A    between atoms: _412  and  _413
REMARK  165  A    between atoms: _415  and  _417
REMARK  166  A    between atoms: _417  and  _418
REMARK  167  A    between atoms: _417  and  _420
REMARK  168  A    between atoms: _420  and  _421
REMARK  169  A    between atoms: _421  and  _422
REMARK  170  A    between atoms: _425  and  _427
REMARK  171  A    between atoms: _427  and  _428
REMARK  172  A    between atoms: _427  and  _430
REMARK  173  A    between atoms: _430  and  _431
REMARK  174  A    between atoms: _437  and  _439
REMARK  175  A    between atoms: _439  and  _440
REMARK  176  A    between atoms: _439  and  _442
REMARK  177  A    between atoms: _445  and  _447
REMARK  178  A    between atoms: _447  and  _448
REMARK  179  A    between atoms: _447  and  _450
REMARK  180  A    between atoms: _450  and  _451
REMARK                            x       y       z     vdW  Elec       q    Type
REMARK                         _______ _______ _______ _____ _____    ______ ____
ROOT
ATOM      1  O   HOH     1      54.989  11.537  51.234  0.00  0.00    +0.000 OA
ENDROOT
TORSDOF 0
REMARK  Name = ../refined-set-2016/1n3i/1n3i_pocket.pdb
REMARK  180 active torsions:
REMARK  status: ('A' for Active; 'I' for Inactive)
REMARK    1  A    between atoms: _1  and  _3
REMARK    2  A    between atoms: _3  and  _4
REMARK    3  A    between atoms: _6  and  _8
REMARK    4  A    between atoms: _8  and  _9
REMARK    5  A    between atoms: _8  and  _11
REMARK    6  A    between atoms: _11  and  _12
REMARK    7  A    between atoms: _14  and  _16
REMARK    8  A    between atoms: _16  and  _17
REMARK    9  A    between atoms: _19  and  _21
REMARK   10  A    between atoms: _21  and  _22
REMARK   11  A    between atoms: _25  and  _27
REMARK   12  A    between atoms: _27  and  _28
REMARK   13  A    between atoms: _31  and  _33
REMARK   14  A    between atoms: _33  and  _34
REMARK   15  A    between atoms: _33  and  _36
REMARK   16  A    between atoms: _36  and  _37
REMARK   17  A    between atoms: _42  and  _44
REMARK   18  A    between atoms: _44  and  _45
REMARK   19  A    between atoms: _44  and  _47
REMARK   20  A    between atoms: _47  and  _48
REMARK   21  A    between atoms: _48  and  _49
REMARK   22  A    between atoms: _49  and  _50
REMARK   23  A    between atoms: _59  and  _61
REMARK   24  A    between atoms: _61  and  _62
REMARK   25  A    between atoms: _61  and  _64
REMARK   26  A    between atoms: _64  and  _65
REMARK   27  A    between atoms: _68  and  _70
REMARK   28  A    between atoms: _70  and  _71
REMARK   29  A    between atoms: _70  and  _73
REMARK   30  A    between atoms: _73  and  _74
REMARK   31  A    between atoms: _79  and  _81
REMARK   32  A    between atoms: _81  and  _82
REMARK   33  A    between atoms: _85  and  _87
REMARK   34  A    between atoms: _87  and  _88
REMARK   35  A    between atoms: _87  and  _90
REMARK   36  A    between atoms: _90  and  _91
REMARK   37  A    between atoms: _96  and  _97
REMARK   38  A    between atoms: _99  and  _101
REMARK   39  A    between atoms: _101  and  _102
REMARK   40  A    between atoms: _101  and  _104
REMARK   41  A    between atoms: _104  and  _105
REMARK   42  A    between atoms: _105  and  _106
REMARK   43  A    between atoms: _109  and  _111
REMARK   44  A    between atoms: _111  and  _112
REMARK   45  A    between atoms: _111  and  _114
REMARK   46  A    between atoms: _114  and  _115
REMARK   47  A    between atoms: _120  and  _122
REMARK   48  A    between atoms: _122  and  _123
REMARK   49  A    between atoms: _126  and  _128
REMARK   50  A    between atoms: _128  and  _129
REMARK   51  A    between atoms: _132  and  _134
REMARK   52  A    between atoms: _134  and  _135
REMARK   53  A    between atoms: _137  and  _139
REMARK   54  A    between atoms: _139  and  _140
REMARK   55  A    between atoms: _142  and  _144
REMARK   56  A    between atoms: _144  and  _145
REMARK   57  A    between atoms: _144  and  _147
REMARK   58  A    between atoms: _147  and  _148
REMARK   59  A    between atoms: _151  and  _153
REMARK   60  A    between atoms: _153  and  _154
REMARK   61  A    between atoms: _153  and  _156
REMARK   62  A    between atoms: _156  and  _157
REMARK   63  A    between atoms: _162  and  _163
REMARK   64  A    between atoms: _165  and  _167
REMARK   65  A    between atoms: _167  and  _168
REMARK   66  A    between atoms: _171  and  _173
REMARK   67  A    between atoms: _173  and  _174
REMARK   68  A    between atoms: _173  and  _176
REMARK   69  A    between atoms: _176  and  _177
REMARK   70  A    between atoms: _181  and  _182
REMARK   71  A    between atoms: _187  and  _189
REMARK   72  A    between atoms: _189  and  _190
REMARK   73  A    between atoms: _193  and  _194
REMARK   74  A    between atoms: _199  and  _201
REMARK   75  A    between atoms: _201  and  _202
REMARK   76  A    between atoms: _201  and  _204
REMARK   77  A    between atoms: _204  and  _205
REMARK   78  A    between atoms: _210  and  _212
REMARK   79  A    between atoms: _212  and  _213
REMARK   80  A    between atoms: _212  and  _215
REMARK   81  A    between atoms: _215  and  _216
REMARK   82  A    between atoms: _221  and  _222
REMARK   83  A    between atoms: _224  and  _226
REMARK   84  A    between atoms: _226  and  _227
REMARK   85  A    between atoms: _226  and  _229
REMARK   86  A    between atoms: _229  and  _230
REMARK   87  A    between atoms: _230  and  _231
REMARK   88  A    between atoms: _234  and  _236
REMARK   89  A    between atoms: _236  and  _237
REMARK   90  A    between atoms: _236  and  _239
REMARK   91  A    between atoms: _239  and  _240
REMARK   92  A    between atoms: _243  and  _245
REMARK   93  A    between atoms: _245  and  _246
REMARK   94  A    between atoms: _245  and  _248
REMARK   95  A    between atoms: _248  and  _249
REMARK   96  A    between atoms: _252  and  _254
REMARK   97  A    between atoms: _254  and  _255
REMARK   98  A    between atoms: _254  and  _257
REMARK   99  A    between atoms: _257  and  _258
REMARK  100  A    between atoms: _261  and  _263
REMARK  101  A    between atoms: _263  and  _264
REMARK  102  A    between atoms: _263  and  _266
REMARK  103  A    between atoms: _269  and  _271
REMARK  104  A    between atoms: _271  and  _272
REMARK  105  A    between atoms: _274  and  _276
REMARK  106  A    between atoms: _276  and  _277
REMARK  107  A    between atoms: _276  and  _279
REMARK  108  A    between atoms: _279  and  _280
REMARK  109  A    between atoms: _280  and  _281
REMARK  110  A    between atoms: _283  and  _285
REMARK  111  A    between atoms: _285  and  _286
REMARK  112  A    between atoms: _285  and  _288
REMARK  113  A    between atoms: _288  and  _289
REMARK  114  A    between atoms: _291  and  _293
REMARK  115  A    between atoms: _293  and  _294
REMARK  116  A    between atoms: _293  and  _296
REMARK  117  A    between atoms: _296  and  _297
REMARK  118  A    between atoms: _300  and  _302
REMARK  119  A    between atoms: _302  and  _303
REMARK  120  A    between atoms: _302  and  _305
REMARK  121  A    between atoms: _308  and  _310
REMARK  122  A    between atoms: _310  and  _311
REMARK  123  A    between atoms: _310  and  _313
REMARK  124  A    between atoms: _313  and  _314
REMARK  125  A    between atoms: _317  and  _319
REMARK  126  A    between atoms: _319  and  _320
REMARK  127  A    between atoms: _319  and  _322
REMARK  128  A    between atoms: _322  and  _323
REMARK  129  A    between atoms: _328  and  _330
REMARK  130  A    between atoms: _330  and  _331
REMARK  131  A    between atoms: _330  and  _333
REMARK  132  A    between atoms: _333  and  _334
REMARK  133  A    between atoms: _337  and  _339
REMARK  134  A    between atoms: _339  and  _340
REMARK  135  A    between atoms: _343  and  _345
REMARK  136  A    between atoms: _345  and  _346
REMARK  137  A    between atoms: _349  and  _351
REMARK  138  A    between atoms: _351  and  _352
REMARK  139  A    between atoms: _351  and  _354
REMARK  140  A    between atoms: _354  and  _355
REMARK  141  A    between atoms: _358  and  _360
REMARK  142  A    between atoms: _360  and  _361
REMARK  143  A    between atoms: _360  and  _363
REMARK  144  A    between atoms: _363  and  _364
REMARK  145  A    between atoms: _366  and  _368
REMARK  146  A    between atoms: _368  and  _369
REMARK  147  A    between atoms: _368  and  _371
REMARK  148  A    between atoms: _371  and  _372
REMARK  149  A    between atoms: _377  and  _379
REMARK  150  A    between atoms: _379  and  _380
REMARK  151  A    between atoms: _383  and  _385
REMARK  152  A    between atoms: _385  and  _386
REMARK  153  A    between atoms: _385  and  _388
REMARK  154  A    between atoms: _388  and  _389
REMARK  155  A    between atoms: _389  and  _390
REMARK  156  A    between atoms: _393  and  _395
REMARK  157  A    between atoms: _395  and  _396
REMARK  158  A    between atoms: _395  and  _398
REMARK  159  A    between atoms: _401  and  _403
REMARK  160  A    between atoms: _403  and  _404
REMARK  161  A    between atoms: _403  and  _406
REMARK  162  A    between atoms: _406  and  _407
REMARK  163  A    between atoms: _410  and  _412
REMARK  164  A    between atoms: _412  and  _413
REMARK  165  A    between atoms: _415  and  _417
REMARK  166  A    between atoms: _417  and  _418
REMARK  167  A    between atoms: _417  and  _420
REMARK  168  A    between atoms: _420  and  _421
REMARK  169  A    between atoms: _421  and  _422
REMARK  170  A    between atoms: _425  and  _427
REMARK  171  A    between atoms: _427  and  _428
REMARK  172  A    between atoms: _427  and  _430
REMARK  173  A    between atoms: _430  and  _431
REMARK  174  A    between atoms: _437  and  _439
REMARK  175  A    between atoms: _439  and  _440
REMARK  176  A    between atoms: _439  and  _442
REMARK  177  A    between atoms: _445  and  _447
REMARK  178  A    between atoms: _447  and  _448
REMARK  179  A    between atoms: _447  and  _450
REMARK  180  A    between atoms: _450  and  _451
REMARK                            x       y       z     vdW  Elec       q    Type
REMARK                         _______ _______ _______ _____ _____    ______ ____
ROOT
ATOM      1  O   HOH     1      58.318  24.553  48.430  0.00  0.00    +0.000 OA
ENDROOT
TORSDOF 0
REMARK  Name = ../refined-set-2016/1n3i/1n3i_pocket.pdb
REMARK  180 active torsions:
REMARK  status: ('A' for Active; 'I' for Inactive)
REMARK    1  A    between atoms: _1  and  _3
REMARK    2  A    between atoms: _3  and  _4
REMARK    3  A    between atoms: _6  and  _8
REMARK    4  A    between atoms: _8  and  _9
REMARK    5  A    between atoms: _8  and  _11
REMARK    6  A    between atoms: _11  and  _12
REMARK    7  A    between atoms: _14  and  _16
REMARK    8  A    between atoms: _16  and  _17
REMARK    9  A    between atoms: _19  and  _21
REMARK   10  A    between atoms: _21  and  _22
REMARK   11  A    between atoms: _25  and  _27
REMARK   12  A    between atoms: _27  and  _28
REMARK   13  A    between atoms: _31  and  _33
REMARK   14  A    between atoms: _33  and  _34
REMARK   15  A    between atoms: _33  and  _36
REMARK   16  A    between atoms: _36  and  _37
REMARK   17  A    between atoms: _42  and  _44
REMARK   18  A    between atoms: _44  and  _45
REMARK   19  A    between atoms: _44  and  _47
REMARK   20  A    between atoms: _47  and  _48
REMARK   21  A    between atoms: _48  and  _49
REMARK   22  A    between atoms: _49  and  _50
REMARK   23  A    between atoms: _59  and  _61
REMARK   24  A    between atoms: _61  and  _62
REMARK   25  A    between atoms: _61  and  _64
REMARK   26  A    between atoms: _64  and  _65
REMARK   27  A    between atoms: _68  and  _70
REMARK   28  A    between atoms: _70  and  _71
REMARK   29  A    between atoms: _70  and  _73
REMARK   30  A    between atoms: _73  and  _74
REMARK   31  A    between atoms: _79  and  _81
REMARK   32  A    between atoms: _81  and  _82
REMARK   33  A    between atoms: _85  and  _87
REMARK   34  A    between atoms: _87  and  _88
REMARK   35  A    between atoms: _87  and  _90
REMARK   36  A    between atoms: _90  and  _91
REMARK   37  A    between atoms: _96  and  _97
REMARK   38  A    between atoms: _99  and  _101
REMARK   39  A    between atoms: _101  and  _102
REMARK   40  A    between atoms: _101  and  _104
REMARK   41  A    between atoms: _104  and  _105
REMARK   42  A    between atoms: _105  and  _106
REMARK   43  A    between atoms: _109  and  _111
REMARK   44  A    between atoms: _111  and  _112
REMARK   45  A    between atoms: _111  and  _114
REMARK   46  A    between atoms: _114  and  _115
REMARK   47  A    between atoms: _120  and  _122
REMARK   48  A    between atoms: _122  and  _123
REMARK   49  A    between atoms: _126  and  _128
REMARK   50  A    between atoms: _128  and  _129
REMARK   51  A    between atoms: _132  and  _134
REMARK   52  A    between atoms: _134  and  _135
REMARK   53  A    between atoms: _137  and  _139
REMARK   54  A    between atoms: _139  and  _140
REMARK   55  A    between atoms: _142  and  _144
REMARK   56  A    between atoms: _144  and  _145
REMARK   57  A    between atoms: _144  and  _147
REMARK   58  A    between atoms: _147  and  _148
REMARK   59  A    between atoms: _151  and  _153
REMARK   60  A    between atoms: _153  and  _154
REMARK   61  A    between atoms: _153  and  _156
REMARK   62  A    between atoms: _156  and  _157
REMARK   63  A    between atoms: _162  and  _163
REMARK   64  A    between atoms: _165  and  _167
REMARK   65  A    between atoms: _167  and  _168
REMARK   66  A    between atoms: _171  and  _173
REMARK   67  A    between atoms: _173  and  _174
REMARK   68  A    between atoms: _173  and  _176
REMARK   69  A    between atoms: _176  and  _177
REMARK   70  A    between atoms: _181  and  _182
REMARK   71  A    between atoms: _187  and  _189
REMARK   72  A    between atoms: _189  and  _190
REMARK   73  A    between atoms: _193  and  _194
REMARK   74  A    between atoms: _199  and  _201
REMARK   75  A    between atoms: _201  and  _202
REMARK   76  A    between atoms: _201  and  _204
REMARK   77  A    between atoms: _204  and  _205
REMARK   78  A    between atoms: _210  and  _212
REMARK   79  A    between atoms: _212  and  _213
REMARK   80  A    between atoms: _212  and  _215
REMARK   81  A    between atoms: _215  and  _216
REMARK   82  A    between atoms: _221  and  _222
REMARK   83  A    between atoms: _224  and  _226
REMARK   84  A    between atoms: _226  and  _227
REMARK   85  A    between atoms: _226  and  _229
REMARK   86  A    between atoms: _229  and  _230
REMARK   87  A    between atoms: _230  and  _231
REMARK   88  A    between atoms: _234  and  _236
REMARK   89  A    between atoms: _236  and  _237
REMARK   90  A    between atoms: _236  and  _239
REMARK   91  A    between atoms: _239  and  _240
REMARK   92  A    between atoms: _243  and  _245
REMARK   93  A    between atoms: _245  and  _246
REMARK   94  A    between atoms: _245  and  _248
REMARK   95  A    between atoms: _248  and  _249
REMARK   96  A    between atoms: _252  and  _254
REMARK   97  A    between atoms: _254  and  _255
REMARK   98  A    between atoms: _254  and  _257
REMARK   99  A    between atoms: _257  and  _258
REMARK  100  A    between atoms: _261  and  _263
REMARK  101  A    between atoms: _263  and  _264
REMARK  102  A    between atoms: _263  and  _266
REMARK  103  A    between atoms: _269  and  _271
REMARK  104  A    between atoms: _271  and  _272
REMARK  105  A    between atoms: _274  and  _276
REMARK  106  A    between atoms: _276  and  _277
REMARK  107  A    between atoms: _276  and  _279
REMARK  108  A    between atoms: _279  and  _280
REMARK  109  A    between atoms: _280  and  _281
REMARK  110  A    between atoms: _283  and  _285
REMARK  111  A    between atoms: _285  and  _286
REMARK  112  A    between atoms: _285  and  _288
REMARK  113  A    between atoms: _288  and  _289
REMARK  114  A    between atoms: _291  and  _293
REMARK  115  A    between atoms: _293  and  _294
REMARK  116  A    between atoms: _293  and  _296
REMARK  117  A    between atoms: _296  and  _297
REMARK  118  A    between atoms: _300  and  _302
REMARK  119  A    between atoms: _302  and  _303
REMARK  120  A    between atoms: _302  and  _305
REMARK  121  A    between atoms: _308  and  _310
REMARK  122  A    between atoms: _310  and  _311
REMARK  123  A    between atoms: _310  and  _313
REMARK  124  A    between atoms: _313  and  _314
REMARK  125  A    between atoms: _317  and  _319
REMARK  126  A    between atoms: _319  and  _320
REMARK  127  A    between atoms: _319  and  _322
REMARK  128  A    between atoms: _322  and  _323
REMARK  129  A    between atoms: _328  and  _330
REMARK  130  A    between atoms: _330  and  _331
REMARK  131  A    between atoms: _330  and  _333
REMARK  132  A    between atoms: _333  and  _334
REMARK  133  A    between atoms: _337  and  _339
REMARK  134  A    between atoms: _339  and  _340
REMARK  135  A    between atoms: _343  and  _345
REMARK  136  A    between atoms: _345  and  _346
REMARK  137  A    between atoms: _349  and  _351
REMARK  138  A    between atoms: _351  and  _352
REMARK  139  A    between atoms: _351  and  _354
REMARK  140  A    between atoms: _354  and  _355
REMARK  141  A    between atoms: _358  and  _360
REMARK  142  A    between atoms: _360  and  _361
REMARK  143  A    between atoms: _360  and  _363
REMARK  144  A    between atoms: _363  and  _364
REMARK  145  A    between atoms: _366  and  _368
REMARK  146  A    between atoms: _368  and  _369
REMARK  147  A    between atoms: _368  and  _371
REMARK  148  A    between atoms: _371  and  _372
REMARK  149  A    between atoms: _377  and  _379
REMARK  150  A    between atoms: _379  and  _380
REMARK  151  A    between atoms: _383  and  _385
REMARK  152  A    between atoms: _385  and  _386
REMARK  153  A    between atoms: _385  and  _388
REMARK  154  A    between atoms: _388  and  _389
REMARK  155  A    between atoms: _389  and  _390
REMARK  156  A    between atoms: _393  and  _395
REMARK  157  A    between atoms: _395  and  _396
REMARK  158  A    between atoms: _395  and  _398
REMARK  159  A    between atoms: _401  and  _403
REMARK  160  A    between atoms: _403  and  _404
REMARK  161  A    between atoms: _403  and  _406
REMARK  162  A    between atoms: _406  and  _407
REMARK  163  A    between atoms: _410  and  _412
REMARK  164  A    between atoms: _412  and  _413
REMARK  165  A    between atoms: _415  and  _417
REMARK  166  A    between atoms: _417  and  _418
REMARK  167  A    between atoms: _417  and  _420
REMARK  168  A    between atoms: _420  and  _421
REMARK  169  A    between atoms: _421  and  _422
REMARK  170  A    between atoms: _425  and  _427
REMARK  171  A    between atoms: _427  and  _428
REMARK  172  A    between atoms: _427  and  _430
REMARK  173  A    between atoms: _430  and  _431
REMARK  174  A    between atoms: _437  and  _439
REMARK  175  A    between atoms: _439  and  _440
REMARK  176  A    between atoms: _439  and  _442
REMARK  177  A    between atoms: _445  and  _447
REMARK  178  A    between atoms: _447  and  _448
REMARK  179  A    between atoms: _447  and  _450
REMARK  180  A    between atoms: _450  and  _451
REMARK                            x       y       z     vdW  Elec       q    Type
REMARK                         _______ _______ _______ _____ _____    ______ ____
ROOT
ATOM      1  O   HOH     1      49.603  12.886  31.492  0.00  0.00    +0.000 OA
ENDROOT
TORSDOF 0
REMARK  Name = ../refined-set-2016/1n3i/1n3i_pocket.pdb
REMARK  180 active torsions:
REMARK  status: ('A' for Active; 'I' for Inactive)
REMARK    1  A    between atoms: _1  and  _3
REMARK    2  A    between atoms: _3  and  _4
REMARK    3  A    between atoms: _6  and  _8
REMARK    4  A    between atoms: _8  and  _9
REMARK    5  A    between atoms: _8  and  _11
REMARK    6  A    between atoms: _11  and  _12
REMARK    7  A    between atoms: _14  and  _16
REMARK    8  A    between atoms: _16  and  _17
REMARK    9  A    between atoms: _19  and  _21
REMARK   10  A    between atoms: _21  and  _22
REMARK   11  A    between atoms: _25  and  _27
REMARK   12  A    between atoms: _27  and  _28
REMARK   13  A    between atoms: _31  and  _33
REMARK   14  A    between atoms: _33  and  _34
REMARK   15  A    between atoms: _33  and  _36
REMARK   16  A    between atoms: _36  and  _37
REMARK   17  A    between atoms: _42  and  _44
REMARK   18  A    between atoms: _44  and  _45
REMARK   19  A    between atoms: _44  and  _47
REMARK   20  A    between atoms: _47  and  _48
REMARK   21  A    between atoms: _48  and  _49
REMARK   22  A    between atoms: _49  and  _50
REMARK   23  A    between atoms: _59  and  _61
REMARK   24  A    between atoms: _61  and  _62
REMARK   25  A    between atoms: _61  and  _64
REMARK   26  A    between atoms: _64  and  _65
REMARK   27  A    between atoms: _68  and  _70
REMARK   28  A    between atoms: _70  and  _71
REMARK   29  A    between atoms: _70  and  _73
REMARK   30  A    between atoms: _73  and  _74
REMARK   31  A    between atoms: _79  and  _81
REMARK   32  A    between atoms: _81  and  _82
REMARK   33  A    between atoms: _85  and  _87
REMARK   34  A    between atoms: _87  and  _88
REMARK   35  A    between atoms: _87  and  _90
REMARK   36  A    between atoms: _90  and  _91
REMARK   37  A    between atoms: _96  and  _97
REMARK   38  A    between atoms: _99  and  _101
REMARK   39  A    between atoms: _101  and  _102
REMARK   40  A    between atoms: _101  and  _104
REMARK   41  A    between atoms: _104  and  _105
REMARK   42  A    between atoms: _105  and  _106
REMARK   43  A    between atoms: _109  and  _111
REMARK   44  A    between atoms: _111  and  _112
REMARK   45  A    between atoms: _111  and  _114
REMARK   46  A    between atoms: _114  and  _115
REMARK   47  A    between atoms: _120  and  _122
REMARK   48  A    between atoms: _122  and  _123
REMARK   49  A    between atoms: _126  and  _128
REMARK   50  A    between atoms: _128  and  _129
REMARK   51  A    between atoms: _132  and  _134
REMARK   52  A    between atoms: _134  and  _135
REMARK   53  A    between atoms: _137  and  _139
REMARK   54  A    between atoms: _139  and  _140
REMARK   55  A    between atoms: _142  and  _144
REMARK   56  A    between atoms: _144  and  _145
REMARK   57  A    between atoms: _144  and  _147
REMARK   58  A    between atoms: _147  and  _148
REMARK   59  A    between atoms: _151  and  _153
REMARK   60  A    between atoms: _153  and  _154
REMARK   61  A    between atoms: _153  and  _156
REMARK   62  A    between atoms: _156  and  _157
REMARK   63  A    between atoms: _162  and  _163
REMARK   64  A    between atoms: _165  and  _167
REMARK   65  A    between atoms: _167  and  _168
REMARK   66  A    between atoms: _171  and  _173
REMARK   67  A    between atoms: _173  and  _174
REMARK   68  A    between atoms: _173  and  _176
REMARK   69  A    between atoms: _176  and  _177
REMARK   70  A    between atoms: _181  and  _182
REMARK   71  A    between atoms: _187  and  _189
REMARK   72  A    between atoms: _189  and  _190
REMARK   73  A    between atoms: _193  and  _194
REMARK   74  A    between atoms: _199  and  _201
REMARK   75  A    between atoms: _201  and  _202
REMARK   76  A    between atoms: _201  and  _204
REMARK   77  A    between atoms: _204  and  _205
REMARK   78  A    between atoms: _210  and  _212
REMARK   79  A    between atoms: _212  and  _213
REMARK   80  A    between atoms: _212  and  _215
REMARK   81  A    between atoms: _215  and  _216
REMARK   82  A    between atoms: _221  and  _222
REMARK   83  A    between atoms: _224  and  _226
REMARK   84  A    between atoms: _226  and  _227
REMARK   85  A    between atoms: _226  and  _229
REMARK   86  A    between atoms: _229  and  _230
REMARK   87  A    between atoms: _230  and  _231
REMARK   88  A    between atoms: _234  and  _236
REMARK   89  A    between atoms: _236  and  _237
REMARK   90  A    between atoms: _236  and  _239
REMARK   91  A    between atoms: _239  and  _240
REMARK   92  A    between atoms: _243  and  _245
REMARK   93  A    between atoms: _245  and  _246
REMARK   94  A    between atoms: _245  and  _248
REMARK   95  A    between atoms: _248  and  _249
REMARK   96  A    between atoms: _252  and  _254
REMARK   97  A    between atoms: _254  and  _255
REMARK   98  A    between atoms: _254  and  _257
REMARK   99  A    between atoms: _257  and  _258
REMARK  100  A    between atoms: _261  and  _263
REMARK  101  A    between atoms: _263  and  _264
REMARK  102  A    between atoms: _263  and  _266
REMARK  103  A    between atoms: _269  and  _271
REMARK  104  A    between atoms: _271  and  _272
REMARK  105  A    between atoms: _274  and  _276
REMARK  106  A    between atoms: _276  and  _277
REMARK  107  A    between atoms: _276  and  _279
REMARK  108  A    between atoms: _279  and  _280
REMARK  109  A    between atoms: _280  and  _281
REMARK  110  A    between atoms: _283  and  _285
REMARK  111  A    between atoms: _285  and  _286
REMARK  112  A    between atoms: _285  and  _288
REMARK  113  A    between atoms: _288  and  _289
REMARK  114  A    between atoms: _291  and  _293
REMARK  115  A    between atoms: _293  and  _294
REMARK  116  A    between atoms: _293  and  _296
REMARK  117  A    between atoms: _296  and  _297
REMARK  118  A    between atoms: _300  and  _302
REMARK  119  A    between atoms: _302  and  _303
REMARK  120  A    between atoms: _302  and  _305
REMARK  121  A    between atoms: _308  and  _310
REMARK  122  A    between atoms: _310  and  _311
REMARK  123  A    between atoms: _310  and  _313
REMARK  124  A    between atoms: _313  and  _314
REMARK  125  A    between atoms: _317  and  _319
REMARK  126  A    between atoms: _319  and  _320
REMARK  127  A    between atoms: _319  and  _322
REMARK  128  A    between atoms: _322  and  _323
REMARK  129  A    between atoms: _328  and  _330
REMARK  130  A    between atoms: _330  and  _331
REMARK  131  A    between atoms: _330  and  _333
REMARK  132  A    between atoms: _333  and  _334
REMARK  133  A    between atoms: _337  and  _339
REMARK  134  A    between atoms: _339  and  _340
REMARK  135  A    between atoms: _343  and  _345
REMARK  136  A    between atoms: _345  and  _346
REMARK  137  A    between atoms: _349  and  _351
REMARK  138  A    between atoms: _351  and  _352
REMARK  139  A    between atoms: _351  and  _354
REMARK  140  A    between atoms: _354  and  _355
REMARK  141  A    between atoms: _358  and  _360
REMARK  142  A    between atoms: _360  and  _361
REMARK  143  A    between atoms: _360  and  _363
REMARK  144  A    between atoms: _363  and  _364
REMARK  145  A    between atoms: _366  and  _368
REMARK  146  A    between atoms: _368  and  _369
REMARK  147  A    between atoms: _368  and  _371
REMARK  148  A    between atoms: _371  and  _372
REMARK  149  A    between atoms: _377  and  _379
REMARK  150  A    between atoms: _379  and  _380
REMARK  151  A    between atoms: _383  and  _385
REMARK  152  A    between atoms: _385  and  _386
REMARK  153  A    between atoms: _385  and  _388
REMARK  154  A    between atoms: _388  and  _389
REMARK  155  A    between atoms: _389  and  _390
REMARK  156  A    between atoms: _393  and  _395
REMARK  157  A    between atoms: _395  and  _396
REMARK  158  A    between atoms: _395  and  _398
REMARK  159  A    between atoms: _401  and  _403
REMARK  160  A    between atoms: _403  and  _404
REMARK  161  A    between atoms: _403  and  _406
REMARK  162  A    between atoms: _406  and  _407
REMARK  163  A    between atoms: _410  and  _412
REMARK  164  A    between atoms: _412  and  _413
REMARK  165  A    between atoms: _415  and  _417
REMARK  166  A    between atoms: _417  and  _418
REMARK  167  A    between atoms: _417  and  _420
REMARK  168  A    between atoms: _420  and  _421
REMARK  169  A    between atoms: _421  and  _422
REMARK  170  A    between atoms: _425  and  _427
REMARK  171  A    between atoms: _427  and  _428
REMARK  172  A    between atoms: _427  and  _430
REMARK  173  A    between atoms: _430  and  _431
REMARK  174  A    between atoms: _437  and  _439
REMARK  175  A    between atoms: _439  and  _440
REMARK  176  A    between atoms: _439  and  _442
REMARK  177  A    between atoms: _445  and  _447
REMARK  178  A    between atoms: _447  and  _448
REMARK  179  A    between atoms: _447  and  _450
REMARK  180  A    between atoms: _450  and  _451
REMARK                            x       y       z     vdW  Elec       q    Type
REMARK                         _______ _______ _______ _____ _____    ______ ____
ROOT
ATOM      1  O   HOH     1      53.077  10.520  38.363  0.00  0.00    +0.000 OA
ENDROOT
TORSDOF 0
REMARK  Name = ../refined-set-2016/1n3i/1n3i_pocket.pdb
REMARK  180 active torsions:
REMARK  status: ('A' for Active; 'I' for Inactive)
REMARK    1  A    between atoms: _1  and  _3
REMARK    2  A    between atoms: _3  and  _4
REMARK    3  A    between atoms: _6  and  _8
REMARK    4  A    between atoms: _8  and  _9
REMARK    5  A    between atoms: _8  and  _11
REMARK    6  A    between atoms: _11  and  _12
REMARK    7  A    between atoms: _14  and  _16
REMARK    8  A    between atoms: _16  and  _17
REMARK    9  A    between atoms: _19  and  _21
REMARK   10  A    between atoms: _21  and  _22
REMARK   11  A    between atoms: _25  and  _27
REMARK   12  A    between atoms: _27  and  _28
REMARK   13  A    between atoms: _31  and  _33
REMARK   14  A    between atoms: _33  and  _34
REMARK   15  A    between atoms: _33  and  _36
REMARK   16  A    between atoms: _36  and  _37
REMARK   17  A    between atoms: _42  and  _44
REMARK   18  A    between atoms: _44  and  _45
REMARK   19  A    between atoms: _44  and  _47
REMARK   20  A    between atoms: _47  and  _48
REMARK   21  A    between atoms: _48  and  _49
REMARK   22  A    between atoms: _49  and  _50
REMARK   23  A    between atoms: _59  and  _61
REMARK   24  A    between atoms: _61  and  _62
REMARK   25  A    between atoms: _61  and  _64
REMARK   26  A    between atoms: _64  and  _65
REMARK   27  A    between atoms: _68  and  _70
REMARK   28  A    between atoms: _70  and  _71
REMARK   29  A    between atoms: _70  and  _73
REMARK   30  A    between atoms: _73  and  _74
REMARK   31  A    between atoms: _79  and  _81
REMARK   32  A    between atoms: _81  and  _82
REMARK   33  A    between atoms: _85  and  _87
REMARK   34  A    between atoms: _87  and  _88
REMARK   35  A    between atoms: _87  and  _90
REMARK   36  A    between atoms: _90  and  _91
REMARK   37  A    between atoms: _96  and  _97
REMARK   38  A    between atoms: _99  and  _101
REMARK   39  A    between atoms: _101  and  _102
REMARK   40  A    between atoms: _101  and  _104
REMARK   41  A    between atoms: _104  and  _105
REMARK   42  A    between atoms: _105  and  _106
REMARK   43  A    between atoms: _109  and  _111
REMARK   44  A    between atoms: _111  and  _112
REMARK   45  A    between atoms: _111  and  _114
REMARK   46  A    between atoms: _114  and  _115
REMARK   47  A    between atoms: _120  and  _122
REMARK   48  A    between atoms: _122  and  _123
REMARK   49  A    between atoms: _126  and  _128
REMARK   50  A    between atoms: _128  and  _129
REMARK   51  A    between atoms: _132  and  _134
REMARK   52  A    between atoms: _134  and  _135
REMARK   53  A    between atoms: _137  and  _139
REMARK   54  A    between atoms: _139  and  _140
REMARK   55  A    between atoms: _142  and  _144
REMARK   56  A    between atoms: _144  and  _145
REMARK   57  A    between atoms: _144  and  _147
REMARK   58  A    between atoms: _147  and  _148
REMARK   59  A    between atoms: _151  and  _153
REMARK   60  A    between atoms: _153  and  _154
REMARK   61  A    between atoms: _153  and  _156
REMARK   62  A    between atoms: _156  and  _157
REMARK   63  A    between atoms: _162  and  _163
REMARK   64  A    between atoms: _165  and  _167
REMARK   65  A    between atoms: _167  and  _168
REMARK   66  A    between atoms: _171  and  _173
REMARK   67  A    between atoms: _173  and  _174
REMARK   68  A    between atoms: _173  and  _176
REMARK   69  A    between atoms: _176  and  _177
REMARK   70  A    between atoms: _181  and  _182
REMARK   71  A    between atoms: _187  and  _189
REMARK   72  A    between atoms: _189  and  _190
REMARK   73  A    between atoms: _193  and  _194
REMARK   74  A    between atoms: _199  and  _201
REMARK   75  A    between atoms: _201  and  _202
REMARK   76  A    between atoms: _201  and  _204
REMARK   77  A    between atoms: _204  and  _205
REMARK   78  A    between atoms: _210  and  _212
REMARK   79  A    between atoms: _212  and  _213
REMARK   80  A    between atoms: _212  and  _215
REMARK   81  A    between atoms: _215  and  _216
REMARK   82  A    between atoms: _221  and  _222
REMARK   83  A    between atoms: _224  and  _226
REMARK   84  A    between atoms: _226  and  _227
REMARK   85  A    between atoms: _226  and  _229
REMARK   86  A    between atoms: _229  and  _230
REMARK   87  A    between atoms: _230  and  _231
REMARK   88  A    between atoms: _234  and  _236
REMARK   89  A    between atoms: _236  and  _237
REMARK   90  A    between atoms: _236  and  _239
REMARK   91  A    between atoms: _239  and  _240
REMARK   92  A    between atoms: _243  and  _245
REMARK   93  A    between atoms: _245  and  _246
REMARK   94  A    between atoms: _245  and  _248
REMARK   95  A    between atoms: _248  and  _249
REMARK   96  A    between atoms: _252  and  _254
REMARK   97  A    between atoms: _254  and  _255
REMARK   98  A    between atoms: _254  and  _257
REMARK   99  A    between atoms: _257  and  _258
REMARK  100  A    between atoms: _261  and  _263
REMARK  101  A    between atoms: _263  and  _264
REMARK  102  A    between atoms: _263  and  _266
REMARK  103  A    between atoms: _269  and  _271
REMARK  104  A    between atoms: _271  and  _272
REMARK  105  A    between atoms: _274  and  _276
REMARK  106  A    between atoms: _276  and  _277
REMARK  107  A    between atoms: _276  and  _279
REMARK  108  A    between atoms: _279  and  _280
REMARK  109  A    between atoms: _280  and  _281
REMARK  110  A    between atoms: _283  and  _285
REMARK  111  A    between atoms: _285  and  _286
REMARK  112  A    between atoms: _285  and  _288
REMARK  113  A    between atoms: _288  and  _289
REMARK  114  A    between atoms: _291  and  _293
REMARK  115  A    between atoms: _293  and  _294
REMARK  116  A    between atoms: _293  and  _296
REMARK  117  A    between atoms: _296  and  _297
REMARK  118  A    between atoms: _300  and  _302
REMARK  119  A    between atoms: _302  and  _303
REMARK  120  A    between atoms: _302  and  _305
REMARK  121  A    between atoms: _308  and  _310
REMARK  122  A    between atoms: _310  and  _311
REMARK  123  A    between atoms: _310  and  _313
REMARK  124  A    between atoms: _313  and  _314
REMARK  125  A    between atoms: _317  and  _319
REMARK  126  A    between atoms: _319  and  _320
REMARK  127  A    between atoms: _319  and  _322
REMARK  128  A    between atoms: _322  and  _323
REMARK  129  A    between atoms: _328  and  _330
REMARK  130  A    between atoms: _330  and  _331
REMARK  131  A    between atoms: _330  and  _333
REMARK  132  A    between atoms: _333  and  _334
REMARK  133  A    between atoms: _337  and  _339
REMARK  134  A    between atoms: _339  and  _340
REMARK  135  A    between atoms: _343  and  _345
REMARK  136  A    between atoms: _345  and  _346
REMARK  137  A    between atoms: _349  and  _351
REMARK  138  A    between atoms: _351  and  _352
REMARK  139  A    between atoms: _351  and  _354
REMARK  140  A    between atoms: _354  and  _355
REMARK  141  A    between atoms: _358  and  _360
REMARK  142  A    between atoms: _360  and  _361
REMARK  143  A    between atoms: _360  and  _363
REMARK  144  A    between atoms: _363  and  _364
REMARK  145  A    between atoms: _366  and  _368
REMARK  146  A    between atoms: _368  and  _369
REMARK  147  A    between atoms: _368  and  _371
REMARK  148  A    between atoms: _371  and  _372
REMARK  149  A    between atoms: _377  and  _379
REMARK  150  A    between atoms: _379  and  _380
REMARK  151  A    between atoms: _383  and  _385
REMARK  152  A    between atoms: _385  and  _386
REMARK  153  A    between atoms: _385  and  _388
REMARK  154  A    between atoms: _388  and  _389
REMARK  155  A    between atoms: _389  and  _390
REMARK  156  A    between atoms: _393  and  _395
REMARK  157  A    between atoms: _395  and  _396
REMARK  158  A    between atoms: _395  and  _398
REMARK  159  A    between atoms: _401  and  _403
REMARK  160  A    between atoms: _403  and  _404
REMARK  161  A    between atoms: _403  and  _406
REMARK  162  A    between atoms: _406  and  _407
REMARK  163  A    between atoms: _410  and  _412
REMARK  164  A    between atoms: _412  and  _413
REMARK  165  A    between atoms: _415  and  _417
REMARK  166  A    between atoms: _417  and  _418
REMARK  167  A    between atoms: _417  and  _420
REMARK  168  A    between atoms: _420  and  _421
REMARK  169  A    between atoms: _421  and  _422
REMARK  170  A    between atoms: _425  and  _427
REMARK  171  A    between atoms: _427  and  _428
REMARK  172  A    between atoms: _427  and  _430
REMARK  173  A    between atoms: _430  and  _431
REMARK  174  A    between atoms: _437  and  _439
REMARK  175  A    between atoms: _439  and  _440
REMARK  176  A    between atoms: _439  and  _442
REMARK  177  A    between atoms: _445  and  _447
REMARK  178  A    between atoms: _447  and  _448
REMARK  179  A    between atoms: _447  and  _450
REMARK  180  A    between atoms: _450  and  _451
REMARK                            x       y       z     vdW  Elec       q    Type
REMARK                         _______ _______ _______ _____ _____    ______ ____
ROOT
ATOM      1  O   HOH     1      54.353   7.526  48.634  0.00  0.00    +0.000 OA
ENDROOT
TORSDOF 0
REMARK  Name = ../refined-set-2016/1n3i/1n3i_pocket.pdb
REMARK  180 active torsions:
REMARK  status: ('A' for Active; 'I' for Inactive)
REMARK    1  A    between atoms: _1  and  _3
REMARK    2  A    between atoms: _3  and  _4
REMARK    3  A    between atoms: _6  and  _8
REMARK    4  A    between atoms: _8  and  _9
REMARK    5  A    between atoms: _8  and  _11
REMARK    6  A    between atoms: _11  and  _12
REMARK    7  A    between atoms: _14  and  _16
REMARK    8  A    between atoms: _16  and  _17
REMARK    9  A    between atoms: _19  and  _21
REMARK   10  A    between atoms: _21  and  _22
REMARK   11  A    between atoms: _25  and  _27
REMARK   12  A    between atoms: _27  and  _28
REMARK   13  A    between atoms: _31  and  _33
REMARK   14  A    between atoms: _33  and  _34
REMARK   15  A    between atoms: _33  and  _36
REMARK   16  A    between atoms: _36  and  _37
REMARK   17  A    between atoms: _42  and  _44
REMARK   18  A    between atoms: _44  and  _45
REMARK   19  A    between atoms: _44  and  _47
REMARK   20  A    between atoms: _47  and  _48
REMARK   21  A    between atoms: _48  and  _49
REMARK   22  A    between atoms: _49  and  _50
REMARK   23  A    between atoms: _59  and  _61
REMARK   24  A    between atoms: _61  and  _62
REMARK   25  A    between atoms: _61  and  _64
REMARK   26  A    between atoms: _64  and  _65
REMARK   27  A    between atoms: _68  and  _70
REMARK   28  A    between atoms: _70  and  _71
REMARK   29  A    between atoms: _70  and  _73
REMARK   30  A    between atoms: _73  and  _74
REMARK   31  A    between atoms: _79  and  _81
REMARK   32  A    between atoms: _81  and  _82
REMARK   33  A    between atoms: _85  and  _87
REMARK   34  A    between atoms: _87  and  _88
REMARK   35  A    between atoms: _87  and  _90
REMARK   36  A    between atoms: _90  and  _91
REMARK   37  A    between atoms: _96  and  _97
REMARK   38  A    between atoms: _99  and  _101
REMARK   39  A    between atoms: _101  and  _102
REMARK   40  A    between atoms: _101  and  _104
REMARK   41  A    between atoms: _104  and  _105
REMARK   42  A    between atoms: _105  and  _106
REMARK   43  A    between atoms: _109  and  _111
REMARK   44  A    between atoms: _111  and  _112
REMARK   45  A    between atoms: _111  and  _114
REMARK   46  A    between atoms: _114  and  _115
REMARK   47  A    between atoms: _120  and  _122
REMARK   48  A    between atoms: _122  and  _123
REMARK   49  A    between atoms: _126  and  _128
REMARK   50  A    between atoms: _128  and  _129
REMARK   51  A    between atoms: _132  and  _134
REMARK   52  A    between atoms: _134  and  _135
REMARK   53  A    between atoms: _137  and  _139
REMARK   54  A    between atoms: _139  and  _140
REMARK   55  A    between atoms: _142  and  _144
REMARK   56  A    between atoms: _144  and  _145
REMARK   57  A    between atoms: _144  and  _147
REMARK   58  A    between atoms: _147  and  _148
REMARK   59  A    between atoms: _151  and  _153
REMARK   60  A    between atoms: _153  and  _154
REMARK   61  A    between atoms: _153  and  _156
REMARK   62  A    between atoms: _156  and  _157
REMARK   63  A    between atoms: _162  and  _163
REMARK   64  A    between atoms: _165  and  _167
REMARK   65  A    between atoms: _167  and  _168
REMARK   66  A    between atoms: _171  and  _173
REMARK   67  A    between atoms: _173  and  _174
REMARK   68  A    between atoms: _173  and  _176
REMARK   69  A    between atoms: _176  and  _177
REMARK   70  A    between atoms: _181  and  _182
REMARK   71  A    between atoms: _187  and  _189
REMARK   72  A    between atoms: _189  and  _190
REMARK   73  A    between atoms: _193  and  _194
REMARK   74  A    between atoms: _199  and  _201
REMARK   75  A    between atoms: _201  and  _202
REMARK   76  A    between atoms: _201  and  _204
REMARK   77  A    between atoms: _204  and  _205
REMARK   78  A    between atoms: _210  and  _212
REMARK   79  A    between atoms: _212  and  _213
REMARK   80  A    between atoms: _212  and  _215
REMARK   81  A    between atoms: _215  and  _216
REMARK   82  A    between atoms: _221  and  _222
REMARK   83  A    between atoms: _224  and  _226
REMARK   84  A    between atoms: _226  and  _227
REMARK   85  A    between atoms: _226  and  _229
REMARK   86  A    between atoms: _229  and  _230
REMARK   87  A    between atoms: _230  and  _231
REMARK   88  A    between atoms: _234  and  _236
REMARK   89  A    between atoms: _236  and  _237
REMARK   90  A    between atoms: _236  and  _239
REMARK   91  A    between atoms: _239  and  _240
REMARK   92  A    between atoms: _243  and  _245
REMARK   93  A    between atoms: _245  and  _246
REMARK   94  A    between atoms: _245  and  _248
REMARK   95  A    between atoms: _248  and  _249
REMARK   96  A    between atoms: _252  and  _254
REMARK   97  A    between atoms: _254  and  _255
REMARK   98  A    between atoms: _254  and  _257
REMARK   99  A    between atoms: _257  and  _258
REMARK  100  A    between atoms: _261  and  _263
REMARK  101  A    between atoms: _263  and  _264
REMARK  102  A    between atoms: _263  and  _266
REMARK  103  A    between atoms: _269  and  _271
REMARK  104  A    between atoms: _271  and  _272
REMARK  105  A    between atoms: _274  and  _276
REMARK  106  A    between atoms: _276  and  _277
REMARK  107  A    between atoms: _276  and  _279
REMARK  108  A    between atoms: _279  and  _280
REMARK  109  A    between atoms: _280  and  _281
REMARK  110  A    between atoms: _283  and  _285
REMARK  111  A    between atoms: _285  and  _286
REMARK  112  A    between atoms: _285  and  _288
REMARK  113  A    between atoms: _288  and  _289
REMARK  114  A    between atoms: _291  and  _293
REMARK  115  A    between atoms: _293  and  _294
REMARK  116  A    between atoms: _293  and  _296
REMARK  117  A    between atoms: _296  and  _297
REMARK  118  A    between atoms: _300  and  _302
REMARK  119  A    between atoms: _302  and  _303
REMARK  120  A    between atoms: _302  and  _305
REMARK  121  A    between atoms: _308  and  _310
REMARK  122  A    between atoms: _310  and  _311
REMARK  123  A    between atoms: _310  and  _313
REMARK  124  A    between atoms: _313  and  _314
REMARK  125  A    between atoms: _317  and  _319
REMARK  126  A    between atoms: _319  and  _320
REMARK  127  A    between atoms: _319  and  _322
REMARK  128  A    between atoms: _322  and  _323
REMARK  129  A    between atoms: _328  and  _330
REMARK  130  A    between atoms: _330  and  _331
REMARK  131  A    between atoms: _330  and  _333
REMARK  132  A    between atoms: _333  and  _334
REMARK  133  A    between atoms: _337  and  _339
REMARK  134  A    between atoms: _339  and  _340
REMARK  135  A    between atoms: _343  and  _345
REMARK  136  A    between atoms: _345  and  _346
REMARK  137  A    between atoms: _349  and  _351
REMARK  138  A    between atoms: _351  and  _352
REMARK  139  A    between atoms: _351  and  _354
REMARK  140  A    between atoms: _354  and  _355
REMARK  141  A    between atoms: _358  and  _360
REMARK  142  A    between atoms: _360  and  _361
REMARK  143  A    between atoms: _360  and  _363
REMARK  144  A    between atoms: _363  and  _364
REMARK  145  A    between atoms: _366  and  _368
REMARK  146  A    between atoms: _368  and  _369
REMARK  147  A    between atoms: _368  and  _371
REMARK  148  A    between atoms: _371  and  _372
REMARK  149  A    between atoms: _377  and  _379
REMARK  150  A    between atoms: _379  and  _380
REMARK  151  A    between atoms: _383  and  _385
REMARK  152  A    between atoms: _385  and  _386
REMARK  153  A    between atoms: _385  and  _388
REMARK  154  A    between atoms: _388  and  _389
REMARK  155  A    between atoms: _389  and  _390
REMARK  156  A    between atoms: _393  and  _395
REMARK  157  A    between atoms: _395  and  _396
REMARK  158  A    between atoms: _395  and  _398
REMARK  159  A    between atoms: _401  and  _403
REMARK  160  A    between atoms: _403  and  _404
REMARK  161  A    between atoms: _403  and  _406
REMARK  162  A    between atoms: _406  and  _407
REMARK  163  A    between atoms: _410  and  _412
REMARK  164  A    between atoms: _412  and  _413
REMARK  165  A    between atoms: _415  and  _417
REMARK  166  A    between atoms: _417  and  _418
REMARK  167  A    between atoms: _417  and  _420
REMARK  168  A    between atoms: _420  and  _421
REMARK  169  A    between atoms: _421  and  _422
REMARK  170  A    between atoms: _425  and  _427
REMARK  171  A    between atoms: _427  and  _428
REMARK  172  A    between atoms: _427  and  _430
REMARK  173  A    between atoms: _430  and  _431
REMARK  174  A    between atoms: _437  and  _439
REMARK  175  A    between atoms: _439  and  _440
REMARK  176  A    between atoms: _439  and  _442
REMARK  177  A    between atoms: _445  and  _447
REMARK  178  A    between atoms: _447  and  _448
REMARK  179  A    between atoms: _447  and  _450
REMARK  180  A    between atoms: _450  and  _451
REMARK                            x       y       z     vdW  Elec       q    Type
REMARK                         _______ _______ _______ _____ _____    ______ ____
ROOT
ATOM      1  O   HOH     1      55.187  16.364  52.855  0.00  0.00    +0.000 OA
ENDROOT
TORSDOF 0
REMARK  Name = ../refined-set-2016/1n3i/1n3i_pocket.pdb
REMARK  180 active torsions:
REMARK  status: ('A' for Active; 'I' for Inactive)
REMARK    1  A    between atoms: _1  and  _3
REMARK    2  A    between atoms: _3  and  _4
REMARK    3  A    between atoms: _6  and  _8
REMARK    4  A    between atoms: _8  and  _9
REMARK    5  A    between atoms: _8  and  _11
REMARK    6  A    between atoms: _11  and  _12
REMARK    7  A    between atoms: _14  and  _16
REMARK    8  A    between atoms: _16  and  _17
REMARK    9  A    between atoms: _19  and  _21
REMARK   10  A    between atoms: _21  and  _22
REMARK   11  A    between atoms: _25  and  _27
REMARK   12  A    between atoms: _27  and  _28
REMARK   13  A    between atoms: _31  and  _33
REMARK   14  A    between atoms: _33  and  _34
REMARK   15  A    between atoms: _33  and  _36
REMARK   16  A    between atoms: _36  and  _37
REMARK   17  A    between atoms: _42  and  _44
REMARK   18  A    between atoms: _44  and  _45
REMARK   19  A    between atoms: _44  and  _47
REMARK   20  A    between atoms: _47  and  _48
REMARK   21  A    between atoms: _48  and  _49
REMARK   22  A    between atoms: _49  and  _50
REMARK   23  A    between atoms: _59  and  _61
REMARK   24  A    between atoms: _61  and  _62
REMARK   25  A    between atoms: _61  and  _64
REMARK   26  A    between atoms: _64  and  _65
REMARK   27  A    between atoms: _68  and  _70
REMARK   28  A    between atoms: _70  and  _71
REMARK   29  A    between atoms: _70  and  _73
REMARK   30  A    between atoms: _73  and  _74
REMARK   31  A    between atoms: _79  and  _81
REMARK   32  A    between atoms: _81  and  _82
REMARK   33  A    between atoms: _85  and  _87
REMARK   34  A    between atoms: _87  and  _88
REMARK   35  A    between atoms: _87  and  _90
REMARK   36  A    between atoms: _90  and  _91
REMARK   37  A    between atoms: _96  and  _97
REMARK   38  A    between atoms: _99  and  _101
REMARK   39  A    between atoms: _101  and  _102
REMARK   40  A    between atoms: _101  and  _104
REMARK   41  A    between atoms: _104  and  _105
REMARK   42  A    between atoms: _105  and  _106
REMARK   43  A    between atoms: _109  and  _111
REMARK   44  A    between atoms: _111  and  _112
REMARK   45  A    between atoms: _111  and  _114
REMARK   46  A    between atoms: _114  and  _115
REMARK   47  A    between atoms: _120  and  _122
REMARK   48  A    between atoms: _122  and  _123
REMARK   49  A    between atoms: _126  and  _128
REMARK   50  A    between atoms: _128  and  _129
REMARK   51  A    between atoms: _132  and  _134
REMARK   52  A    between atoms: _134  and  _135
REMARK   53  A    between atoms: _137  and  _139
REMARK   54  A    between atoms: _139  and  _140
REMARK   55  A    between atoms: _142  and  _144
REMARK   56  A    between atoms: _144  and  _145
REMARK   57  A    between atoms: _144  and  _147
REMARK   58  A    between atoms: _147  and  _148
REMARK   59  A    between atoms: _151  and  _153
REMARK   60  A    between atoms: _153  and  _154
REMARK   61  A    between atoms: _153  and  _156
REMARK   62  A    between atoms: _156  and  _157
REMARK   63  A    between atoms: _162  and  _163
REMARK   64  A    between atoms: _165  and  _167
REMARK   65  A    between atoms: _167  and  _168
REMARK   66  A    between atoms: _171  and  _173
REMARK   67  A    between atoms: _173  and  _174
REMARK   68  A    between atoms: _173  and  _176
REMARK   69  A    between atoms: _176  and  _177
REMARK   70  A    between atoms: _181  and  _182
REMARK   71  A    between atoms: _187  and  _189
REMARK   72  A    between atoms: _189  and  _190
REMARK   73  A    between atoms: _193  and  _194
REMARK   74  A    between atoms: _199  and  _201
REMARK   75  A    between atoms: _201  and  _202
REMARK   76  A    between atoms: _201  and  _204
REMARK   77  A    between atoms: _204  and  _205
REMARK   78  A    between atoms: _210  and  _212
REMARK   79  A    between atoms: _212  and  _213
REMARK   80  A    between atoms: _212  and  _215
REMARK   81  A    between atoms: _215  and  _216
REMARK   82  A    between atoms: _221  and  _222
REMARK   83  A    between atoms: _224  and  _226
REMARK   84  A    between atoms: _226  and  _227
REMARK   85  A    between atoms: _226  and  _229
REMARK   86  A    between atoms: _229  and  _230
REMARK   87  A    between atoms: _230  and  _231
REMARK   88  A    between atoms: _234  and  _236
REMARK   89  A    between atoms: _236  and  _237
REMARK   90  A    between atoms: _236  and  _239
REMARK   91  A    between atoms: _239  and  _240
REMARK   92  A    between atoms: _243  and  _245
REMARK   93  A    between atoms: _245  and  _246
REMARK   94  A    between atoms: _245  and  _248
REMARK   95  A    between atoms: _248  and  _249
REMARK   96  A    between atoms: _252  and  _254
REMARK   97  A    between atoms: _254  and  _255
REMARK   98  A    between atoms: _254  and  _257
REMARK   99  A    between atoms: _257  and  _258
REMARK  100  A    between atoms: _261  and  _263
REMARK  101  A    between atoms: _263  and  _264
REMARK  102  A    between atoms: _263  and  _266
REMARK  103  A    between atoms: _269  and  _271
REMARK  104  A    between atoms: _271  and  _272
REMARK  105  A    between atoms: _274  and  _276
REMARK  106  A    between atoms: _276  and  _277
REMARK  107  A    between atoms: _276  and  _279
REMARK  108  A    between atoms: _279  and  _280
REMARK  109  A    between atoms: _280  and  _281
REMARK  110  A    between atoms: _283  and  _285
REMARK  111  A    between atoms: _285  and  _286
REMARK  112  A    between atoms: _285  and  _288
REMARK  113  A    between atoms: _288  and  _289
REMARK  114  A    between atoms: _291  and  _293
REMARK  115  A    between atoms: _293  and  _294
REMARK  116  A    between atoms: _293  and  _296
REMARK  117  A    between atoms: _296  and  _297
REMARK  118  A    between atoms: _300  and  _302
REMARK  119  A    between atoms: _302  and  _303
REMARK  120  A    between atoms: _302  and  _305
REMARK  121  A    between atoms: _308  and  _310
REMARK  122  A    between atoms: _310  and  _311
REMARK  123  A    between atoms: _310  and  _313
REMARK  124  A    between atoms: _313  and  _314
REMARK  125  A    between atoms: _317  and  _319
REMARK  126  A    between atoms: _319  and  _320
REMARK  127  A    between atoms: _319  and  _322
REMARK  128  A    between atoms: _322  and  _323
REMARK  129  A    between atoms: _328  and  _330
REMARK  130  A    between atoms: _330  and  _331
REMARK  131  A    between atoms: _330  and  _333
REMARK  132  A    between atoms: _333  and  _334
REMARK  133  A    between atoms: _337  and  _339
REMARK  134  A    between atoms: _339  and  _340
REMARK  135  A    between atoms: _343  and  _345
REMARK  136  A    between atoms: _345  and  _346
REMARK  137  A    between atoms: _349  and  _351
REMARK  138  A    between atoms: _351  and  _352
REMARK  139  A    between atoms: _351  and  _354
REMARK  140  A    between atoms: _354  and  _355
REMARK  141  A    between atoms: _358  and  _360
REMARK  142  A    between atoms: _360  and  _361
REMARK  143  A    between atoms: _360  and  _363
REMARK  144  A    between atoms: _363  and  _364
REMARK  145  A    between atoms: _366  and  _368
REMARK  146  A    between atoms: _368  and  _369
REMARK  147  A    between atoms: _368  and  _371
REMARK  148  A    between atoms: _371  and  _372
REMARK  149  A    between atoms: _377  and  _379
REMARK  150  A    between atoms: _379  and  _380
REMARK  151  A    between atoms: _383  and  _385
REMARK  152  A    between atoms: _385  and  _386
REMARK  153  A    between atoms: _385  and  _388
REMARK  154  A    between atoms: _388  and  _389
REMARK  155  A    between atoms: _389  and  _390
REMARK  156  A    between atoms: _393  and  _395
REMARK  157  A    between atoms: _395  and  _396
REMARK  158  A    between atoms: _395  and  _398
REMARK  159  A    between atoms: _401  and  _403
REMARK  160  A    between atoms: _403  and  _404
REMARK  161  A    between atoms: _403  and  _406
REMARK  162  A    between atoms: _406  and  _407
REMARK  163  A    between atoms: _410  and  _412
REMARK  164  A    between atoms: _412  and  _413
REMARK  165  A    between atoms: _415  and  _417
REMARK  166  A    between atoms: _417  and  _418
REMARK  167  A    between atoms: _417  and  _420
REMARK  168  A    between atoms: _420  and  _421
REMARK  169  A    between atoms: _421  and  _422
REMARK  170  A    between atoms: _425  and  _427
REMARK  171  A    between atoms: _427  and  _428
REMARK  172  A    between atoms: _427  and  _430
REMARK  173  A    between atoms: _430  and  _431
REMARK  174  A    between atoms: _437  and  _439
REMARK  175  A    between atoms: _439  and  _440
REMARK  176  A    between atoms: _439  and  _442
REMARK  177  A    between atoms: _445  and  _447
REMARK  178  A    between atoms: _447  and  _448
REMARK  179  A    between atoms: _447  and  _450
REMARK  180  A    between atoms: _450  and  _451
REMARK                            x       y       z     vdW  Elec       q    Type
REMARK                         _______ _______ _______ _____ _____    ______ ____
ROOT
ATOM      1  O   HOH     1      53.502   9.534  50.101  0.00  0.00    +0.000 OA
ENDROOT
TORSDOF 0
