REMARK  Name = ../refined-set-2016/4k0o/4k0o_pocket.pdb
REMARK  108 active torsions:
REMARK  status: ('A' for Active; 'I' for Inactive)
REMARK    1  A    between atoms: _1  and  _3
REMARK    2  A    between atoms: _3  and  _4
REMARK    3  A    between atoms: _3  and  _6
REMARK    4  A    between atoms: _6  and  _7
REMARK    5  A    between atoms: _7  and  _8
REMARK    6  A    between atoms: _13  and  _15
REMARK    7  A    between atoms: _15  and  _16
REMARK    8  A    between atoms: _15  and  _18
REMARK    9  A    between atoms: _18  and  _19
REMARK   10  A    between atoms: _24  and  _26
REMARK   11  A    between atoms: _26  and  _27
REMARK   12  A    between atoms: _30  and  _32
REMARK   13  A    between atoms: _32  and  _33
REMARK   14  A    between atoms: _32  and  _35
REMARK   15  A    between atoms: _35  and  _36
REMARK   16  A    between atoms: _41  and  _43
REMARK   17  A    between atoms: _43  and  _44
REMARK   18  A    between atoms: _43  and  _46
REMARK   19  A    between atoms: _49  and  _51
REMARK   20  A    between atoms: _51  and  _52
REMARK   21  A    between atoms: _51  and  _54
REMARK   22  A    between atoms: _54  and  _55
REMARK   23  A    between atoms: _65  and  _67
REMARK   24  A    between atoms: _67  and  _68
REMARK   25  A    between atoms: _67  and  _70
REMARK   26  A    between atoms: _70  and  _71
REMARK   27  A    between atoms: _71  and  _72
REMARK   28  A    between atoms: _72  and  _73
REMARK   29  A    between atoms: _82  and  _84
REMARK   30  A    between atoms: _84  and  _85
REMARK   31  A    between atoms: _84  and  _87
REMARK   32  A    between atoms: _87  and  _88
REMARK   33  A    between atoms: _91  and  _93
REMARK   34  A    between atoms: _93  and  _94
REMARK   35  A    between atoms: _93  and  _96
REMARK   36  A    between atoms: _99  and  _101
REMARK   37  A    between atoms: _101  and  _102
REMARK   38  A    between atoms: _101  and  _104
REMARK   39  A    between atoms: _104  and  _105
REMARK   40  A    between atoms: _110  and  _111
REMARK   41  A    between atoms: _113  and  _115
REMARK   42  A    between atoms: _115  and  _116
REMARK   43  A    between atoms: _115  and  _118
REMARK   44  A    between atoms: _118  and  _119
REMARK   45  A    between atoms: _122  and  _124
REMARK   46  A    between atoms: _124  and  _125
REMARK   47  A    between atoms: _124  and  _127
REMARK   48  A    between atoms: _127  and  _128
REMARK   49  A    between atoms: _131  and  _133
REMARK   50  A    between atoms: _133  and  _134
REMARK   51  A    between atoms: _133  and  _136
REMARK   52  A    between atoms: _136  and  _137
REMARK   53  A    between atoms: _142  and  _144
REMARK   54  A    between atoms: _144  and  _145
REMARK   55  A    between atoms: _144  and  _147
REMARK   56  A    between atoms: _147  and  _148
REMARK   57  A    between atoms: _148  and  _149
REMARK   58  A    between atoms: _149  and  _150
REMARK   59  A    between atoms: _159  and  _161
REMARK   60  A    between atoms: _161  and  _162
REMARK   61  A    between atoms: _161  and  _164
REMARK   62  A    between atoms: _164  and  _165
REMARK   63  A    between atoms: _171  and  _173
REMARK   64  A    between atoms: _173  and  _174
REMARK   65  A    between atoms: _176  and  _178
REMARK   66  A    between atoms: _178  and  _179
REMARK   67  A    between atoms: _178  and  _181
REMARK   68  A    between atoms: _181  and  _182
REMARK   69  A    between atoms: _192  and  _194
REMARK   70  A    between atoms: _194  and  _195
REMARK   71  A    between atoms: _194  and  _197
REMARK   72  A    between atoms: _199  and  _201
REMARK   73  A    between atoms: _201  and  _202
REMARK   74  A    between atoms: _201  and  _204
REMARK   75  A    between atoms: _207  and  _209
REMARK   76  A    between atoms: _209  and  _210
REMARK   77  A    between atoms: _212  and  _214
REMARK   78  A    between atoms: _214  and  _215
REMARK   79  A    between atoms: _214  and  _217
REMARK   80  A    between atoms: _217  and  _218
REMARK   81  A    between atoms: _223  and  _224
REMARK   82  A    between atoms: _226  and  _228
REMARK   83  A    between atoms: _228  and  _229
REMARK   84  A    between atoms: _228  and  _231
REMARK   85  A    between atoms: _231  and  _232
REMARK   86  A    between atoms: _235  and  _237
REMARK   87  A    between atoms: _237  and  _238
REMARK   88  A    between atoms: _237  and  _240
REMARK   89  A    between atoms: _240  and  _241
REMARK   90  A    between atoms: _243  and  _245
REMARK   91  A    between atoms: _245  and  _246
REMARK   92  A    between atoms: _245  and  _248
REMARK   93  A    between atoms: _248  and  _249
REMARK   94  A    between atoms: _252  and  _254
REMARK   95  A    between atoms: _254  and  _255
REMARK   96  A    between atoms: _254  and  _257
REMARK   97  A    between atoms: _257  and  _258
REMARK   98  A    between atoms: _258  and  _259
REMARK   99  A    between atoms: _264  and  _266
REMARK  100  A    between atoms: _266  and  _267
REMARK  101  A    between atoms: _269  and  _271
REMARK  102  A    between atoms: _271  and  _272
REMARK  103  A    between atoms: _271  and  _274
REMARK  104  A    between atoms: _274  and  _275
REMARK  105  A    between atoms: _278  and  _280
REMARK  106  A    between atoms: _280  and  _281
REMARK  107  A    between atoms: _280  and  _283
REMARK  108  A    between atoms: _283  and  _284
REMARK                            x       y       z     vdW  Elec       q    Type
REMARK                         _______ _______ _______ _____ _____    ______ ____
ROOT
ATOM      1  CA  VAL A   5     -21.853  27.175   1.716  0.00  0.00    +0.149 C 
ENDROOT
BRANCH   1   2
ATOM      2  C   VAL A   5     -22.631  27.858   2.830  0.00  0.00    +0.241 C 
ATOM      3  N   TRP A   6     -21.965  28.127   3.946  0.00  0.00    -0.297 N 
ATOM      4  H   TRP A   6     -21.010  27.736   4.079  0.00  0.00    +0.150 HD
ATOM      5  O   VAL A   5     -23.814  28.145   2.677  0.00  0.00    -0.273 OA
BRANCH   3   6
ATOM      6  CA  TRP A   6     -22.550  28.961   4.987  0.00  0.00    +0.153 C 
BRANCH   6   7
ATOM      7  C   TRP A   6     -21.671  30.161   5.233  0.00  0.00    +0.241 C 
ATOM      8  N   ARG A   7     -22.295  31.298   5.503  0.00  0.00    -0.297 N 
ATOM      9  H   ARG A   7     -23.328  31.357   5.394  0.00  0.00    +0.150 HD
ATOM     10  O   TRP A   6     -20.450  30.062   5.174  0.00  0.00    -0.273 OA
BRANCH   8  11
ATOM     11  CA  ARG A   7     -21.552  32.462   5.950  0.00  0.00    +0.149 C 
BRANCH  11  12
ATOM     12  C   ARG A   7     -21.625  32.520   7.473  0.00  0.00    +0.241 C 
ATOM     13  N   ILE A   8     -20.471  32.663   8.117  0.00  0.00    -0.298 N 
ATOM     14  H   ILE A   8     -19.595  32.782   7.569  0.00  0.00    +0.150 HD
ATOM     15  O   ARG A   7     -22.703  32.407   8.057  0.00  0.00    -0.273 OA
BRANCH  13  16
ATOM     16  CA  ILE A   8     -20.403  32.657   9.575  0.00  0.00    +0.137 C 
BRANCH  16  17
ATOM     17  CB  ILE A   8     -19.781  31.346  10.110  0.00  0.00    +0.026 C 
ATOM     18  CG2 ILE A   8     -20.671  30.161   9.800  0.00  0.00    +0.002 C 
BRANCH  17  19
ATOM     19  CG1 ILE A   8     -18.399  31.116   9.501  0.00  0.00    +0.002 C 
ATOM     20  CD1 ILE A   8     -17.695  29.888  10.037  0.00  0.00    +0.000 C 
ENDBRANCH  17  19
ENDBRANCH  16  17
BRANCH  16  21
ATOM     21  C   ILE A   8     -19.610  33.854  10.093  0.00  0.00    +0.227 C 
ATOM     22  O   ILE A   8     -18.809  34.433   9.359  0.00  0.00    -0.286 OA
ENDBRANCH  16  21
ENDBRANCH  13  16
ENDBRANCH  11  12
BRANCH  11  23
ATOM     23  CB  ARG A   7     -22.100  33.743   5.317  0.00  0.00    +0.033 C 
BRANCH  23  24
ATOM     24  CG  ARG A   7     -21.466  35.016   5.846  0.00  0.00    +0.045 C 
BRANCH  24  25
ATOM     25  CD  ARG A   7     -21.787  36.208   4.968  0.00  0.00    +0.174 C 
BRANCH  25  26
ATOM     26  NE  ARG A   7     -20.791  36.361   3.913  0.00  0.00    -0.265 N 
ATOM     27  HE  ARG A   7     -19.815  36.585   4.194  0.00  0.00    +0.259 HD
ATOM     28  CZ  ARG A   7     -21.050  36.233   2.620  0.00  0.00    +0.342 C 
ATOM     29  NH2 ARG A   7     -22.284  35.973   2.216  0.00  0.00    -0.292 N 
ATOM     30 HH21 ARG A   7     -23.049  35.870   2.913  0.00  0.00    +0.255 HD
ATOM     31 HH22 ARG A   7     -22.489  35.872   1.201  0.00  0.00    +0.255 HD
ATOM     32  NH1 ARG A   7     -20.077  36.378   1.733  0.00  0.00    -0.292 N 
ATOM     33 HH11 ARG A   7     -19.110  36.592   2.052  0.00  0.00    +0.255 HD
ATOM     34 HH12 ARG A   7     -20.280  36.278   0.718  0.00  0.00    +0.255 HD
ENDBRANCH  25  26
ENDBRANCH  24  25
ENDBRANCH  23  24
ENDBRANCH  11  23
ENDBRANCH   8  11
ENDBRANCH   6   7
BRANCH   6  35
ATOM     35  CB  TRP A   6     -22.714  28.191   6.294  0.00  0.00    +0.057 C 
BRANCH  35  36
ATOM     36  CG  TRP A   6     -23.540  26.978   6.154  0.00  0.00    -0.002 A 
ATOM     37  CD1 TRP A   6     -24.888  26.879   6.309  0.00  0.00    +0.068 A 
ATOM     38  NE1 TRP A   6     -25.293  25.587   6.092  0.00  0.00    -0.352 N 
ATOM     39  HE1 TRP A   6     -26.273  25.242   6.148  0.00  0.00    +0.166 HD
ATOM     40  CE2 TRP A   6     -24.195  24.825   5.790  0.00  0.00    +0.056 A 
ATOM     41  CZ2 TRP A   6     -24.094  23.467   5.494  0.00  0.00    +0.017 A 
ATOM     42  CH2 TRP A   6     -22.846  22.975   5.226  0.00  0.00    +0.001 A 
ATOM     43  CZ3 TRP A   6     -21.716  23.801   5.250  0.00  0.00    +0.000 A 
ATOM     44  CE3 TRP A   6     -21.816  25.139   5.544  0.00  0.00    +0.001 A 
ATOM     45  CD2 TRP A   6     -23.078  25.670   5.819  0.00  0.00    +0.013 A 
ENDBRANCH  35  36
ENDBRANCH   6  35
ENDBRANCH   3   6
ENDBRANCH   1   2
BRANCH   1  47
ATOM     46  C   ASN A   4     -20.308  28.631   0.516  0.00  0.00    +0.241 C 
ATOM     47  N   VAL A   5     -20.553  27.808   1.532  0.00  0.00    -0.297 N 
ATOM     48  H   VAL A   5     -19.794  27.610   2.215  0.00  0.00    +0.150 HD
ATOM     49  O   ASN A   4     -21.145  28.907  -0.338  0.00  0.00    -0.273 OA
BRANCH  46  50
ATOM     50  CA  ASN A   4     -18.910  29.238   0.458  0.00  0.00    +0.158 C 
BRANCH  50  53
ATOM     51  C   ALA A   3     -16.809  28.031   0.611  0.00  0.00    +0.241 C 
ATOM     52  O   ALA A   3     -16.633  28.379   1.776  0.00  0.00    -0.273 OA
ATOM     53  N   ASN A   4     -17.908  28.323  -0.072  0.00  0.00    -0.297 N 
ATOM     54  H   ASN A   4     -18.057  27.890  -1.005  0.00  0.00    +0.150 HD
BRANCH  51  55
ATOM     55  CA  ALA A   3     -15.754  27.232  -0.133  0.00  0.00    +0.149 C 
ATOM     56  CB  ALA A   3     -14.586  28.124  -0.487  0.00  0.00    +0.031 C 
BRANCH  55  59
ATOM     57  C   ASN A   2     -17.052  25.521  -1.279  0.00  0.00    +0.241 C 
ATOM     58  O   ASN A   2     -17.400  25.001  -0.227  0.00  0.00    -0.273 OA
ATOM     59  N   ALA A   3     -16.287  26.605  -1.335  0.00  0.00    -0.297 N 
ATOM     60  H   ALA A   3     -16.062  27.018  -2.263  0.00  0.00    +0.150 HD
BRANCH  57  61
ATOM     61  CA  ASN A   2     -17.481  24.927  -2.607  0.00  0.00    +0.158 C 
BRANCH  61  63
ATOM     62  C   GLN A   1     -16.696  23.041  -3.904  0.00  0.00    +0.238 C 
ATOM     63  N   ASN A   2     -16.980  23.570  -2.724  0.00  0.00    -0.297 N 
ATOM     64  H   ASN A   2     -16.841  23.002  -1.864  0.00  0.00    +0.150 HD
ATOM     65  O   GLN A   1     -16.889  23.629  -4.965  0.00  0.00    -0.274 OA
BRANCH  62  66
ATOM     66  CA  GLN A   1     -16.131  21.634  -3.883  0.00  0.00    +0.145 C 
BRANCH  66  67
ATOM     67  N   GLN A   1     -16.907  20.791  -4.777  0.00  0.00    -0.238 NA
ATOM     68  H   GLN A   1     -17.418  21.228  -5.570  0.00  0.00    +0.142 HD
ENDBRANCH  66  67
BRANCH  66  69
ATOM     69  CB  GLN A   1     -14.659  21.646  -4.313  0.00  0.00    +0.036 C 
BRANCH  69  70
ATOM     70  CG  GLN A   1     -13.767  22.608  -3.543  0.00  0.00    +0.087 C 
BRANCH  70  71
ATOM     71  CD  GLN A   1     -12.304  22.488  -3.929  0.00  0.00    +0.219 C 
ATOM     72  NE2 GLN A   1     -11.470  22.105  -2.965  0.00  0.00    -0.329 N 
ATOM     73 HE21 GLN A   1     -11.833  21.913  -2.009  0.00  0.00    +0.145 HD
ATOM     74 HE22 GLN A   1     -10.455  21.998  -3.167  0.00  0.00    +0.145 HD
ATOM     75  OE1 GLN A   1     -11.927  22.729  -5.080  0.00  0.00    -0.275 OA
ENDBRANCH  70  71
ENDBRANCH  69  70
ENDBRANCH  66  69
ENDBRANCH  62  66
ENDBRANCH  61  63
BRANCH  61  76
ATOM     76  CB  ASN A   2     -19.005  24.943  -2.741  0.00  0.00    +0.114 C 
BRANCH  76  77
ATOM     77  CG  ASN A   2     -19.570  26.345  -2.831  0.00  0.00    +0.222 C 
ATOM     78  ND2 ASN A   2     -20.892  26.443  -2.855  0.00  0.00    -0.329 N 
ATOM     79 HD21 ASN A   2     -21.478  25.585  -2.804  0.00  0.00    +0.145 HD
ATOM     80 HD22 ASN A   2     -21.343  27.378  -2.925  0.00  0.00    +0.145 HD
ATOM     81  OD1 ASN A   2     -18.831  27.327  -2.889  0.00  0.00    -0.275 OA
ENDBRANCH  76  77
ENDBRANCH  61  76
ENDBRANCH  57  61
ENDBRANCH  55  59
ENDBRANCH  51  55
ENDBRANCH  50  53
BRANCH  50  82
ATOM     82  CB  ASN A   4     -18.919  30.524  -0.371  0.00  0.00    +0.114 C 
BRANCH  82  83
ATOM     83  CG  ASN A   4     -17.536  31.125  -0.515  0.00  0.00    +0.222 C 
ATOM     84  OD1 ASN A   4     -16.860  31.401   0.477  0.00  0.00    -0.275 OA
ATOM     85  ND2 ASN A   4     -17.100  31.318  -1.753  0.00  0.00    -0.329 N 
ATOM     86 HD21 ASN A   4     -16.153  31.717  -1.915  0.00  0.00    +0.145 HD
ATOM     87 HD22 ASN A   4     -17.705  31.070  -2.562  0.00  0.00    +0.145 HD
ENDBRANCH  82  83
ENDBRANCH  50  82
ENDBRANCH  46  50
ENDBRANCH   1  47
BRANCH   1  88
ATOM     88  CB  VAL A   5     -21.713  25.670   1.989  0.00  0.00    +0.027 C 
ATOM     89  CG2 VAL A   5     -23.078  25.023   2.156  0.00  0.00    +0.002 C 
ATOM     90  CG1 VAL A   5     -20.966  25.016   0.847  0.00  0.00    +0.002 C 
ENDBRANCH   1  88
TORSDOF 32
REMARK  Name = ../refined-set-2016/4k0o/4k0o_pocket.pdb
REMARK  108 active torsions:
REMARK  status: ('A' for Active; 'I' for Inactive)
REMARK    1  A    between atoms: _1  and  _3
REMARK    2  A    between atoms: _3  and  _4
REMARK    3  A    between atoms: _3  and  _6
REMARK    4  A    between atoms: _6  and  _7
REMARK    5  A    between atoms: _7  and  _8
REMARK    6  A    between atoms: _13  and  _15
REMARK    7  A    between atoms: _15  and  _16
REMARK    8  A    between atoms: _15  and  _18
REMARK    9  A    between atoms: _18  and  _19
REMARK   10  A    between atoms: _24  and  _26
REMARK   11  A    between atoms: _26  and  _27
REMARK   12  A    between atoms: _30  and  _32
REMARK   13  A    between atoms: _32  and  _33
REMARK   14  A    between atoms: _32  and  _35
REMARK   15  A    between atoms: _35  and  _36
REMARK   16  A    between atoms: _41  and  _43
REMARK   17  A    between atoms: _43  and  _44
REMARK   18  A    between atoms: _43  and  _46
REMARK   19  A    between atoms: _49  and  _51
REMARK   20  A    between atoms: _51  and  _52
REMARK   21  A    between atoms: _51  and  _54
REMARK   22  A    between atoms: _54  and  _55
REMARK   23  A    between atoms: _65  and  _67
REMARK   24  A    between atoms: _67  and  _68
REMARK   25  A    between atoms: _67  and  _70
REMARK   26  A    between atoms: _70  and  _71
REMARK   27  A    between atoms: _71  and  _72
REMARK   28  A    between atoms: _72  and  _73
REMARK   29  A    between atoms: _82  and  _84
REMARK   30  A    between atoms: _84  and  _85
REMARK   31  A    between atoms: _84  and  _87
REMARK   32  A    between atoms: _87  and  _88
REMARK   33  A    between atoms: _91  and  _93
REMARK   34  A    between atoms: _93  and  _94
REMARK   35  A    between atoms: _93  and  _96
REMARK   36  A    between atoms: _99  and  _101
REMARK   37  A    between atoms: _101  and  _102
REMARK   38  A    between atoms: _101  and  _104
REMARK   39  A    between atoms: _104  and  _105
REMARK   40  A    between atoms: _110  and  _111
REMARK   41  A    between atoms: _113  and  _115
REMARK   42  A    between atoms: _115  and  _116
REMARK   43  A    between atoms: _115  and  _118
REMARK   44  A    between atoms: _118  and  _119
REMARK   45  A    between atoms: _122  and  _124
REMARK   46  A    between atoms: _124  and  _125
REMARK   47  A    between atoms: _124  and  _127
REMARK   48  A    between atoms: _127  and  _128
REMARK   49  A    between atoms: _131  and  _133
REMARK   50  A    between atoms: _133  and  _134
REMARK   51  A    between atoms: _133  and  _136
REMARK   52  A    between atoms: _136  and  _137
REMARK   53  A    between atoms: _142  and  _144
REMARK   54  A    between atoms: _144  and  _145
REMARK   55  A    between atoms: _144  and  _147
REMARK   56  A    between atoms: _147  and  _148
REMARK   57  A    between atoms: _148  and  _149
REMARK   58  A    between atoms: _149  and  _150
REMARK   59  A    between atoms: _159  and  _161
REMARK   60  A    between atoms: _161  and  _162
REMARK   61  A    between atoms: _161  and  _164
REMARK   62  A    between atoms: _164  and  _165
REMARK   63  A    between atoms: _171  and  _173
REMARK   64  A    between atoms: _173  and  _174
REMARK   65  A    between atoms: _176  and  _178
REMARK   66  A    between atoms: _178  and  _179
REMARK   67  A    between atoms: _178  and  _181
REMARK   68  A    between atoms: _181  and  _182
REMARK   69  A    between atoms: _192  and  _194
REMARK   70  A    between atoms: _194  and  _195
REMARK   71  A    between atoms: _194  and  _197
REMARK   72  A    between atoms: _199  and  _201
REMARK   73  A    between atoms: _201  and  _202
REMARK   74  A    between atoms: _201  and  _204
REMARK   75  A    between atoms: _207  and  _209
REMARK   76  A    between atoms: _209  and  _210
REMARK   77  A    between atoms: _212  and  _214
REMARK   78  A    between atoms: _214  and  _215
REMARK   79  A    between atoms: _214  and  _217
REMARK   80  A    between atoms: _217  and  _218
REMARK   81  A    between atoms: _223  and  _224
REMARK   82  A    between atoms: _226  and  _228
REMARK   83  A    between atoms: _228  and  _229
REMARK   84  A    between atoms: _228  and  _231
REMARK   85  A    between atoms: _231  and  _232
REMARK   86  A    between atoms: _235  and  _237
REMARK   87  A    between atoms: _237  and  _238
REMARK   88  A    between atoms: _237  and  _240
REMARK   89  A    between atoms: _240  and  _241
REMARK   90  A    between atoms: _243  and  _245
REMARK   91  A    between atoms: _245  and  _246
REMARK   92  A    between atoms: _245  and  _248
REMARK   93  A    between atoms: _248  and  _249
REMARK   94  A    between atoms: _252  and  _254
REMARK   95  A    between atoms: _254  and  _255
REMARK   96  A    between atoms: _254  and  _257
REMARK   97  A    between atoms: _257  and  _258
REMARK   98  A    between atoms: _258  and  _259
REMARK   99  A    between atoms: _264  and  _266
REMARK  100  A    between atoms: _266  and  _267
REMARK  101  A    between atoms: _269  and  _271
REMARK  102  A    between atoms: _271  and  _272
REMARK  103  A    between atoms: _271  and  _274
REMARK  104  A    between atoms: _274  and  _275
REMARK  105  A    between atoms: _278  and  _280
REMARK  106  A    between atoms: _280  and  _281
REMARK  107  A    between atoms: _280  and  _283
REMARK  108  A    between atoms: _283  and  _284
REMARK                            x       y       z     vdW  Elec       q    Type
REMARK                         _______ _______ _______ _____ _____    ______ ____
ROOT
ATOM      1  CA  VAL A   1     -18.807  24.949  13.337  0.00  0.00    +0.133 C 
ENDROOT
BRANCH   1   2
ATOM      2  CB  VAL A   1     -19.580  25.673  12.204  0.00  0.00    +0.023 C 
ATOM      3  CG2 VAL A   1     -20.593  24.752  11.548  0.00  0.00    +0.002 C 
ATOM      4  CG1 VAL A   1     -18.613  26.240  11.171  0.00  0.00    +0.002 C 
ENDBRANCH   1   2
BRANCH   1   5
ATOM      5  N   VAL A   1     -18.101  25.908  14.167  0.00  0.00    -0.239 NA
ATOM      6  H   VAL A   1     -17.105  26.126  13.963  0.00  0.00    +0.142 HD
ENDBRANCH   1   5
BRANCH   1   7
ATOM      7  C   VAL A   1     -17.878  23.883  12.761  0.00  0.00    +0.224 C 
ATOM      8  O   VAL A   1     -16.702  24.139  12.512  0.00  0.00    -0.287 OA
ENDBRANCH   1   7
TORSDOF 3
REMARK  Name = ../refined-set-2016/4k0o/4k0o_pocket.pdb
REMARK  108 active torsions:
REMARK  status: ('A' for Active; 'I' for Inactive)
REMARK    1  A    between atoms: _1  and  _3
REMARK    2  A    between atoms: _3  and  _4
REMARK    3  A    between atoms: _3  and  _6
REMARK    4  A    between atoms: _6  and  _7
REMARK    5  A    between atoms: _7  and  _8
REMARK    6  A    between atoms: _13  and  _15
REMARK    7  A    between atoms: _15  and  _16
REMARK    8  A    between atoms: _15  and  _18
REMARK    9  A    between atoms: _18  and  _19
REMARK   10  A    between atoms: _24  and  _26
REMARK   11  A    between atoms: _26  and  _27
REMARK   12  A    between atoms: _30  and  _32
REMARK   13  A    between atoms: _32  and  _33
REMARK   14  A    between atoms: _32  and  _35
REMARK   15  A    between atoms: _35  and  _36
REMARK   16  A    between atoms: _41  and  _43
REMARK   17  A    between atoms: _43  and  _44
REMARK   18  A    between atoms: _43  and  _46
REMARK   19  A    between atoms: _49  and  _51
REMARK   20  A    between atoms: _51  and  _52
REMARK   21  A    between atoms: _51  and  _54
REMARK   22  A    between atoms: _54  and  _55
REMARK   23  A    between atoms: _65  and  _67
REMARK   24  A    between atoms: _67  and  _68
REMARK   25  A    between atoms: _67  and  _70
REMARK   26  A    between atoms: _70  and  _71
REMARK   27  A    between atoms: _71  and  _72
REMARK   28  A    between atoms: _72  and  _73
REMARK   29  A    between atoms: _82  and  _84
REMARK   30  A    between atoms: _84  and  _85
REMARK   31  A    between atoms: _84  and  _87
REMARK   32  A    between atoms: _87  and  _88
REMARK   33  A    between atoms: _91  and  _93
REMARK   34  A    between atoms: _93  and  _94
REMARK   35  A    between atoms: _93  and  _96
REMARK   36  A    between atoms: _99  and  _101
REMARK   37  A    between atoms: _101  and  _102
REMARK   38  A    between atoms: _101  and  _104
REMARK   39  A    between atoms: _104  and  _105
REMARK   40  A    between atoms: _110  and  _111
REMARK   41  A    between atoms: _113  and  _115
REMARK   42  A    between atoms: _115  and  _116
REMARK   43  A    between atoms: _115  and  _118
REMARK   44  A    between atoms: _118  and  _119
REMARK   45  A    between atoms: _122  and  _124
REMARK   46  A    between atoms: _124  and  _125
REMARK   47  A    between atoms: _124  and  _127
REMARK   48  A    between atoms: _127  and  _128
REMARK   49  A    between atoms: _131  and  _133
REMARK   50  A    between atoms: _133  and  _134
REMARK   51  A    between atoms: _133  and  _136
REMARK   52  A    between atoms: _136  and  _137
REMARK   53  A    between atoms: _142  and  _144
REMARK   54  A    between atoms: _144  and  _145
REMARK   55  A    between atoms: _144  and  _147
REMARK   56  A    between atoms: _147  and  _148
REMARK   57  A    between atoms: _148  and  _149
REMARK   58  A    between atoms: _149  and  _150
REMARK   59  A    between atoms: _159  and  _161
REMARK   60  A    between atoms: _161  and  _162
REMARK   61  A    between atoms: _161  and  _164
REMARK   62  A    between atoms: _164  and  _165
REMARK   63  A    between atoms: _171  and  _173
REMARK   64  A    between atoms: _173  and  _174
REMARK   65  A    between atoms: _176  and  _178
REMARK   66  A    between atoms: _178  and  _179
REMARK   67  A    between atoms: _178  and  _181
REMARK   68  A    between atoms: _181  and  _182
REMARK   69  A    between atoms: _192  and  _194
REMARK   70  A    between atoms: _194  and  _195
REMARK   71  A    between atoms: _194  and  _197
REMARK   72  A    between atoms: _199  and  _201
REMARK   73  A    between atoms: _201  and  _202
REMARK   74  A    between atoms: _201  and  _204
REMARK   75  A    between atoms: _207  and  _209
REMARK   76  A    between atoms: _209  and  _210
REMARK   77  A    between atoms: _212  and  _214
REMARK   78  A    between atoms: _214  and  _215
REMARK   79  A    between atoms: _214  and  _217
REMARK   80  A    between atoms: _217  and  _218
REMARK   81  A    between atoms: _223  and  _224
REMARK   82  A    between atoms: _226  and  _228
REMARK   83  A    between atoms: _228  and  _229
REMARK   84  A    between atoms: _228  and  _231
REMARK   85  A    between atoms: _231  and  _232
REMARK   86  A    between atoms: _235  and  _237
REMARK   87  A    between atoms: _237  and  _238
REMARK   88  A    between atoms: _237  and  _240
REMARK   89  A    between atoms: _240  and  _241
REMARK   90  A    between atoms: _243  and  _245
REMARK   91  A    between atoms: _245  and  _246
REMARK   92  A    between atoms: _245  and  _248
REMARK   93  A    between atoms: _248  and  _249
REMARK   94  A    between atoms: _252  and  _254
REMARK   95  A    between atoms: _254  and  _255
REMARK   96  A    between atoms: _254  and  _257
REMARK   97  A    between atoms: _257  and  _258
REMARK   98  A    between atoms: _258  and  _259
REMARK   99  A    between atoms: _264  and  _266
REMARK  100  A    between atoms: _266  and  _267
REMARK  101  A    between atoms: _269  and  _271
REMARK  102  A    between atoms: _271  and  _272
REMARK  103  A    between atoms: _271  and  _274
REMARK  104  A    between atoms: _274  and  _275
REMARK  105  A    between atoms: _278  and  _280
REMARK  106  A    between atoms: _280  and  _281
REMARK  107  A    between atoms: _280  and  _283
REMARK  108  A    between atoms: _283  and  _284
REMARK                            x       y       z     vdW  Elec       q    Type
REMARK                         _______ _______ _______ _____ _____    ______ ____
ROOT
ATOM      1  CA  LEU A   1     -19.207  19.122   9.462  0.00  0.00    +0.133 C 
ENDROOT
BRANCH   1   2
ATOM      2  N   LEU A   1     -18.355  19.772  10.450  0.00  0.00    -0.239 NA
ATOM      3  H   LEU A   1     -17.479  19.305  10.762  0.00  0.00    +0.142 HD
ENDBRANCH   1   2
BRANCH   1   4
ATOM      4  C   LEU A   1     -19.470  17.656   9.777  0.00  0.00    +0.224 C 
ATOM      5  O   LEU A   1     -18.560  16.920  10.154  0.00  0.00    -0.287 OA
ENDBRANCH   1   4
BRANCH   1   6
ATOM      6  CB  LEU A   1     -18.572  19.224   8.074  0.00  0.00    +0.025 C 
BRANCH   6   7
ATOM      7  CG  LEU A   1     -18.402  20.616   7.473  0.00  0.00    +0.002 C 
ATOM      8  CD2 LEU A   1     -19.752  21.176   7.101  0.00  0.00    +0.000 C 
ATOM      9  CD1 LEU A   1     -17.508  20.550   6.248  0.00  0.00    +0.000 C 
ENDBRANCH   6   7
ENDBRANCH   1   6
TORSDOF 4
REMARK  Name = ../refined-set-2016/4k0o/4k0o_pocket.pdb
REMARK  108 active torsions:
REMARK  status: ('A' for Active; 'I' for Inactive)
REMARK    1  A    between atoms: _1  and  _3
REMARK    2  A    between atoms: _3  and  _4
REMARK    3  A    between atoms: _3  and  _6
REMARK    4  A    between atoms: _6  and  _7
REMARK    5  A    between atoms: _7  and  _8
REMARK    6  A    between atoms: _13  and  _15
REMARK    7  A    between atoms: _15  and  _16
REMARK    8  A    between atoms: _15  and  _18
REMARK    9  A    between atoms: _18  and  _19
REMARK   10  A    between atoms: _24  and  _26
REMARK   11  A    between atoms: _26  and  _27
REMARK   12  A    between atoms: _30  and  _32
REMARK   13  A    between atoms: _32  and  _33
REMARK   14  A    between atoms: _32  and  _35
REMARK   15  A    between atoms: _35  and  _36
REMARK   16  A    between atoms: _41  and  _43
REMARK   17  A    between atoms: _43  and  _44
REMARK   18  A    between atoms: _43  and  _46
REMARK   19  A    between atoms: _49  and  _51
REMARK   20  A    between atoms: _51  and  _52
REMARK   21  A    between atoms: _51  and  _54
REMARK   22  A    between atoms: _54  and  _55
REMARK   23  A    between atoms: _65  and  _67
REMARK   24  A    between atoms: _67  and  _68
REMARK   25  A    between atoms: _67  and  _70
REMARK   26  A    between atoms: _70  and  _71
REMARK   27  A    between atoms: _71  and  _72
REMARK   28  A    between atoms: _72  and  _73
REMARK   29  A    between atoms: _82  and  _84
REMARK   30  A    between atoms: _84  and  _85
REMARK   31  A    between atoms: _84  and  _87
REMARK   32  A    between atoms: _87  and  _88
REMARK   33  A    between atoms: _91  and  _93
REMARK   34  A    between atoms: _93  and  _94
REMARK   35  A    between atoms: _93  and  _96
REMARK   36  A    between atoms: _99  and  _101
REMARK   37  A    between atoms: _101  and  _102
REMARK   38  A    between atoms: _101  and  _104
REMARK   39  A    between atoms: _104  and  _105
REMARK   40  A    between atoms: _110  and  _111
REMARK   41  A    between atoms: _113  and  _115
REMARK   42  A    between atoms: _115  and  _116
REMARK   43  A    between atoms: _115  and  _118
REMARK   44  A    between atoms: _118  and  _119
REMARK   45  A    between atoms: _122  and  _124
REMARK   46  A    between atoms: _124  and  _125
REMARK   47  A    between atoms: _124  and  _127
REMARK   48  A    between atoms: _127  and  _128
REMARK   49  A    between atoms: _131  and  _133
REMARK   50  A    between atoms: _133  and  _134
REMARK   51  A    between atoms: _133  and  _136
REMARK   52  A    between atoms: _136  and  _137
REMARK   53  A    between atoms: _142  and  _144
REMARK   54  A    between atoms: _144  and  _145
REMARK   55  A    between atoms: _144  and  _147
REMARK   56  A    between atoms: _147  and  _148
REMARK   57  A    between atoms: _148  and  _149
REMARK   58  A    between atoms: _149  and  _150
REMARK   59  A    between atoms: _159  and  _161
REMARK   60  A    between atoms: _161  and  _162
REMARK   61  A    between atoms: _161  and  _164
REMARK   62  A    between atoms: _164  and  _165
REMARK   63  A    between atoms: _171  and  _173
REMARK   64  A    between atoms: _173  and  _174
REMARK   65  A    between atoms: _176  and  _178
REMARK   66  A    between atoms: _178  and  _179
REMARK   67  A    between atoms: _178  and  _181
REMARK   68  A    between atoms: _181  and  _182
REMARK   69  A    between atoms: _192  and  _194
REMARK   70  A    between atoms: _194  and  _195
REMARK   71  A    between atoms: _194  and  _197
REMARK   72  A    between atoms: _199  and  _201
REMARK   73  A    between atoms: _201  and  _202
REMARK   74  A    between atoms: _201  and  _204
REMARK   75  A    between atoms: _207  and  _209
REMARK   76  A    between atoms: _209  and  _210
REMARK   77  A    between atoms: _212  and  _214
REMARK   78  A    between atoms: _214  and  _215
REMARK   79  A    between atoms: _214  and  _217
REMARK   80  A    between atoms: _217  and  _218
REMARK   81  A    between atoms: _223  and  _224
REMARK   82  A    between atoms: _226  and  _228
REMARK   83  A    between atoms: _228  and  _229
REMARK   84  A    between atoms: _228  and  _231
REMARK   85  A    between atoms: _231  and  _232
REMARK   86  A    between atoms: _235  and  _237
REMARK   87  A    between atoms: _237  and  _238
REMARK   88  A    between atoms: _237  and  _240
REMARK   89  A    between atoms: _240  and  _241
REMARK   90  A    between atoms: _243  and  _245
REMARK   91  A    between atoms: _245  and  _246
REMARK   92  A    between atoms: _245  and  _248
REMARK   93  A    between atoms: _248  and  _249
REMARK   94  A    between atoms: _252  and  _254
REMARK   95  A    between atoms: _254  and  _255
REMARK   96  A    between atoms: _254  and  _257
REMARK   97  A    between atoms: _257  and  _258
REMARK   98  A    between atoms: _258  and  _259
REMARK   99  A    between atoms: _264  and  _266
REMARK  100  A    between atoms: _266  and  _267
REMARK  101  A    between atoms: _269  and  _271
REMARK  102  A    between atoms: _271  and  _272
REMARK  103  A    between atoms: _271  and  _274
REMARK  104  A    between atoms: _274  and  _275
REMARK  105  A    between atoms: _278  and  _280
REMARK  106  A    between atoms: _280  and  _281
REMARK  107  A    between atoms: _280  and  _283
REMARK  108  A    between atoms: _283  and  _284
REMARK                            x       y       z     vdW  Elec       q    Type
REMARK                         _______ _______ _______ _____ _____    ______ ____
ROOT
ATOM      1  CA  THR A   3     -13.379  22.778   1.519  0.00  0.00    +0.176 C 
ENDROOT
BRANCH   1   3
ATOM      2  C   ASP A   2     -13.460  20.972   3.192  0.00  0.00    +0.241 C 
ATOM      3  N   THR A   3     -13.533  22.264   2.876  0.00  0.00    -0.295 N 
ATOM      4  H   THR A   3     -13.710  22.946   3.641  0.00  0.00    +0.150 HD
ATOM      5  O   ASP A   2     -13.175  20.081   2.391  0.00  0.00    -0.273 OA
BRANCH   2   6
ATOM      6  CA  ASP A   2     -13.755  20.635   4.646  0.00  0.00    +0.160 C 
BRANCH   6   8
ATOM      7  C   GLY A   1     -14.890  18.519   4.253  0.00  0.00    +0.265 C 
ATOM      8  N   ASP A   2     -13.913  19.204   4.834  0.00  0.00    -0.293 N 
ATOM      9  H   ASP A   2     -13.239  18.699   5.444  0.00  0.00    +0.150 HD
ATOM     10  O   GLY A   1     -15.710  19.027   3.489  0.00  0.00    -0.268 OA
BRANCH   7  12
ATOM     11  N   GLY A   1     -15.592  16.182   3.636  0.00  0.00    -0.293 NA
ATOM     12  CA  GLY A   1     -14.934  17.047   4.597  0.00  0.00    +0.147 C 
ATOM     13  H   GLY A   1     -16.172  16.596   2.878  0.00  0.00    +0.187 HD
ENDBRANCH   7  12
ENDBRANCH   6   8
BRANCH   6  14
ATOM     14  CB  ASP A   2     -12.630  21.151   5.538  0.00  0.00    +0.143 C 
BRANCH  14  15
ATOM     15  CG  ASP A   2     -12.662  22.642   5.697  0.00  0.00    +0.367 C 
ATOM     16  OD2 ASP A   2     -11.582  23.252   5.822  0.00  0.00    -0.246 OA
ATOM     17  OD1 ASP A   2     -13.772  23.212   5.681  0.00  0.00    -0.246 OA
ENDBRANCH  14  15
ENDBRANCH   6  14
ENDBRANCH   2   6
ENDBRANCH   1   3
BRANCH   1  18
ATOM     18  C   THR A   3     -12.300  22.084   0.699  0.00  0.00    +0.243 C 
ATOM     19  N   ASN A   4     -11.105  21.981   1.264  0.00  0.00    -0.298 N 
ATOM     20  H   ASN A   4     -10.953  22.366   2.218  0.00  0.00    +0.150 HD
ATOM     21  O   THR A   3     -12.542  21.663  -0.430  0.00  0.00    -0.273 OA
BRANCH  19  22
ATOM     22  CA  ASN A   4     -10.006  21.337   0.568  0.00  0.00    +0.146 C 
BRANCH  22  23
ATOM     23  C   ASN A   4     -10.246  19.850   0.420  0.00  0.00    +0.227 C 
ATOM     24  O   ASN A   4     -10.645  19.176   1.366  0.00  0.00    -0.286 OA
ENDBRANCH  22  23
BRANCH  22  25
ATOM     25  CB  ASN A   4      -8.680  21.588   1.288  0.00  0.00    +0.112 C 
BRANCH  25  26
ATOM     26  CG  ASN A   4      -8.258  23.043   1.250  0.00  0.00    +0.222 C 
ATOM     27  ND2 ASN A   4      -7.363  23.416   2.156  0.00  0.00    -0.329 N 
ATOM     28 HD21 ASN A   4      -6.999  22.725   2.842  0.00  0.00    +0.145 HD
ATOM     29 HD22 ASN A   4      -7.026  24.400   2.180  0.00  0.00    +0.145 HD
ATOM     30  OD1 ASN A   4      -8.723  23.821   0.413  0.00  0.00    -0.275 OA
ENDBRANCH  25  26
ENDBRANCH  22  25
ENDBRANCH  19  22
ENDBRANCH   1  18
BRANCH   1  31
ATOM     31  CB  THR A   3     -13.049  24.270   1.534  0.00  0.00    +0.137 C 
ATOM     32  CG2 THR A   3     -13.034  24.804   0.117  0.00  0.00    +0.034 C 
BRANCH  31  33
ATOM     33  OG1 THR A   3     -14.026  24.971   2.312  0.00  0.00    -0.382 OA
ATOM     34  HG1 THR A   3     -13.809  25.937   2.319  0.00  0.00    +0.210 HD
ENDBRANCH  31  33
ENDBRANCH   1  31
TORSDOF 13
REMARK  Name = ../refined-set-2016/4k0o/4k0o_pocket.pdb
REMARK  108 active torsions:
REMARK  status: ('A' for Active; 'I' for Inactive)
REMARK    1  A    between atoms: _1  and  _3
REMARK    2  A    between atoms: _3  and  _4
REMARK    3  A    between atoms: _3  and  _6
REMARK    4  A    between atoms: _6  and  _7
REMARK    5  A    between atoms: _7  and  _8
REMARK    6  A    between atoms: _13  and  _15
REMARK    7  A    between atoms: _15  and  _16
REMARK    8  A    between atoms: _15  and  _18
REMARK    9  A    between atoms: _18  and  _19
REMARK   10  A    between atoms: _24  and  _26
REMARK   11  A    between atoms: _26  and  _27
REMARK   12  A    between atoms: _30  and  _32
REMARK   13  A    between atoms: _32  and  _33
REMARK   14  A    between atoms: _32  and  _35
REMARK   15  A    between atoms: _35  and  _36
REMARK   16  A    between atoms: _41  and  _43
REMARK   17  A    between atoms: _43  and  _44
REMARK   18  A    between atoms: _43  and  _46
REMARK   19  A    between atoms: _49  and  _51
REMARK   20  A    between atoms: _51  and  _52
REMARK   21  A    between atoms: _51  and  _54
REMARK   22  A    between atoms: _54  and  _55
REMARK   23  A    between atoms: _65  and  _67
REMARK   24  A    between atoms: _67  and  _68
REMARK   25  A    between atoms: _67  and  _70
REMARK   26  A    between atoms: _70  and  _71
REMARK   27  A    between atoms: _71  and  _72
REMARK   28  A    between atoms: _72  and  _73
REMARK   29  A    between atoms: _82  and  _84
REMARK   30  A    between atoms: _84  and  _85
REMARK   31  A    between atoms: _84  and  _87
REMARK   32  A    between atoms: _87  and  _88
REMARK   33  A    between atoms: _91  and  _93
REMARK   34  A    between atoms: _93  and  _94
REMARK   35  A    between atoms: _93  and  _96
REMARK   36  A    between atoms: _99  and  _101
REMARK   37  A    between atoms: _101  and  _102
REMARK   38  A    between atoms: _101  and  _104
REMARK   39  A    between atoms: _104  and  _105
REMARK   40  A    between atoms: _110  and  _111
REMARK   41  A    between atoms: _113  and  _115
REMARK   42  A    between atoms: _115  and  _116
REMARK   43  A    between atoms: _115  and  _118
REMARK   44  A    between atoms: _118  and  _119
REMARK   45  A    between atoms: _122  and  _124
REMARK   46  A    between atoms: _124  and  _125
REMARK   47  A    between atoms: _124  and  _127
REMARK   48  A    between atoms: _127  and  _128
REMARK   49  A    between atoms: _131  and  _133
REMARK   50  A    between atoms: _133  and  _134
REMARK   51  A    between atoms: _133  and  _136
REMARK   52  A    between atoms: _136  and  _137
REMARK   53  A    between atoms: _142  and  _144
REMARK   54  A    between atoms: _144  and  _145
REMARK   55  A    between atoms: _144  and  _147
REMARK   56  A    between atoms: _147  and  _148
REMARK   57  A    between atoms: _148  and  _149
REMARK   58  A    between atoms: _149  and  _150
REMARK   59  A    between atoms: _159  and  _161
REMARK   60  A    between atoms: _161  and  _162
REMARK   61  A    between atoms: _161  and  _164
REMARK   62  A    between atoms: _164  and  _165
REMARK   63  A    between atoms: _171  and  _173
REMARK   64  A    between atoms: _173  and  _174
REMARK   65  A    between atoms: _176  and  _178
REMARK   66  A    between atoms: _178  and  _179
REMARK   67  A    between atoms: _178  and  _181
REMARK   68  A    between atoms: _181  and  _182
REMARK   69  A    between atoms: _192  and  _194
REMARK   70  A    between atoms: _194  and  _195
REMARK   71  A    between atoms: _194  and  _197
REMARK   72  A    between atoms: _199  and  _201
REMARK   73  A    between atoms: _201  and  _202
REMARK   74  A    between atoms: _201  and  _204
REMARK   75  A    between atoms: _207  and  _209
REMARK   76  A    between atoms: _209  and  _210
REMARK   77  A    between atoms: _212  and  _214
REMARK   78  A    between atoms: _214  and  _215
REMARK   79  A    between atoms: _214  and  _217
REMARK   80  A    between atoms: _217  and  _218
REMARK   81  A    between atoms: _223  and  _224
REMARK   82  A    between atoms: _226  and  _228
REMARK   83  A    between atoms: _228  and  _229
REMARK   84  A    between atoms: _228  and  _231
REMARK   85  A    between atoms: _231  and  _232
REMARK   86  A    between atoms: _235  and  _237
REMARK   87  A    between atoms: _237  and  _238
REMARK   88  A    between atoms: _237  and  _240
REMARK   89  A    between atoms: _240  and  _241
REMARK   90  A    between atoms: _243  and  _245
REMARK   91  A    between atoms: _245  and  _246
REMARK   92  A    between atoms: _245  and  _248
REMARK   93  A    between atoms: _248  and  _249
REMARK   94  A    between atoms: _252  and  _254
REMARK   95  A    between atoms: _254  and  _255
REMARK   96  A    between atoms: _254  and  _257
REMARK   97  A    between atoms: _257  and  _258
REMARK   98  A    between atoms: _258  and  _259
REMARK   99  A    between atoms: _264  and  _266
REMARK  100  A    between atoms: _266  and  _267
REMARK  101  A    between atoms: _269  and  _271
REMARK  102  A    between atoms: _271  and  _272
REMARK  103  A    between atoms: _271  and  _274
REMARK  104  A    between atoms: _274  and  _275
REMARK  105  A    between atoms: _278  and  _280
REMARK  106  A    between atoms: _280  and  _281
REMARK  107  A    between atoms: _280  and  _283
REMARK  108  A    between atoms: _283  and  _284
REMARK                            x       y       z     vdW  Elec       q    Type
REMARK                         _______ _______ _______ _____ _____    ______ ____
ROOT
ATOM      1  NE  ARG A   1      -7.452  21.558   5.907  0.00  0.00    -0.265 N 
ATOM      2  CZ  ARG A   1      -8.107  22.555   6.492  0.00  0.00    +0.342 C 
ATOM      3  NH2 ARG A   1      -9.326  22.357   6.969  0.00  0.00    -0.292 N 
ATOM      4 HH21 ARG A   1      -9.838  23.138   7.427  0.00  0.00    +0.255 HD
ATOM      5 HH22 ARG A   1      -9.771  21.421   6.886  0.00  0.00    +0.255 HD
ATOM      6  NH1 ARG A   1      -7.540  23.747   6.606  0.00  0.00    -0.292 N 
ATOM      7 HH11 ARG A   1      -8.055  24.526   7.064  0.00  0.00    +0.255 HD
ATOM      8 HH12 ARG A   1      -6.580  23.904   6.237  0.00  0.00    +0.255 HD
ATOM      9  HE  ARG A   1      -6.495  21.748   5.547  0.00  0.00    +0.259 HD
ENDROOT
BRANCH   1  10
ATOM     10  CD  ARG A   1      -7.994  20.211   5.739  0.00  0.00    +0.174 C 
BRANCH  10  11
ATOM     11  CG  ARG A   1      -8.714  20.038   4.424  0.00  0.00    +0.045 C 
BRANCH  11  12
ATOM     12  CB  ARG A   1      -9.702  18.888   4.465  0.00  0.00    +0.029 C 
BRANCH  12  13
ATOM     13  CA  ARG A   1      -9.132  17.529   4.064  0.00  0.00    +0.133 C 
BRANCH  13  14
ATOM     14  N   ARG A   1      -8.557  17.600   2.732  0.00  0.00    -0.239 NA
ATOM     15  H   ARG A   1      -8.987  18.236   2.030  0.00  0.00    +0.142 HD
ENDBRANCH  13  14
BRANCH  13  16
ATOM     16  C   ARG A   1     -10.248  16.499   4.120  0.00  0.00    +0.224 C 
ATOM     17  O   ARG A   1     -10.937  16.393   5.129  0.00  0.00    -0.287 OA
ENDBRANCH  13  16
ENDBRANCH  12  13
ENDBRANCH  11  12
ENDBRANCH  10  11
ENDBRANCH   1  10
TORSDOF 6
REMARK  Name = ../refined-set-2016/4k0o/4k0o_pocket.pdb
REMARK  108 active torsions:
REMARK  status: ('A' for Active; 'I' for Inactive)
REMARK    1  A    between atoms: _1  and  _3
REMARK    2  A    between atoms: _3  and  _4
REMARK    3  A    between atoms: _3  and  _6
REMARK    4  A    between atoms: _6  and  _7
REMARK    5  A    between atoms: _7  and  _8
REMARK    6  A    between atoms: _13  and  _15
REMARK    7  A    between atoms: _15  and  _16
REMARK    8  A    between atoms: _15  and  _18
REMARK    9  A    between atoms: _18  and  _19
REMARK   10  A    between atoms: _24  and  _26
REMARK   11  A    between atoms: _26  and  _27
REMARK   12  A    between atoms: _30  and  _32
REMARK   13  A    between atoms: _32  and  _33
REMARK   14  A    between atoms: _32  and  _35
REMARK   15  A    between atoms: _35  and  _36
REMARK   16  A    between atoms: _41  and  _43
REMARK   17  A    between atoms: _43  and  _44
REMARK   18  A    between atoms: _43  and  _46
REMARK   19  A    between atoms: _49  and  _51
REMARK   20  A    between atoms: _51  and  _52
REMARK   21  A    between atoms: _51  and  _54
REMARK   22  A    between atoms: _54  and  _55
REMARK   23  A    between atoms: _65  and  _67
REMARK   24  A    between atoms: _67  and  _68
REMARK   25  A    between atoms: _67  and  _70
REMARK   26  A    between atoms: _70  and  _71
REMARK   27  A    between atoms: _71  and  _72
REMARK   28  A    between atoms: _72  and  _73
REMARK   29  A    between atoms: _82  and  _84
REMARK   30  A    between atoms: _84  and  _85
REMARK   31  A    between atoms: _84  and  _87
REMARK   32  A    between atoms: _87  and  _88
REMARK   33  A    between atoms: _91  and  _93
REMARK   34  A    between atoms: _93  and  _94
REMARK   35  A    between atoms: _93  and  _96
REMARK   36  A    between atoms: _99  and  _101
REMARK   37  A    between atoms: _101  and  _102
REMARK   38  A    between atoms: _101  and  _104
REMARK   39  A    between atoms: _104  and  _105
REMARK   40  A    between atoms: _110  and  _111
REMARK   41  A    between atoms: _113  and  _115
REMARK   42  A    between atoms: _115  and  _116
REMARK   43  A    between atoms: _115  and  _118
REMARK   44  A    between atoms: _118  and  _119
REMARK   45  A    between atoms: _122  and  _124
REMARK   46  A    between atoms: _124  and  _125
REMARK   47  A    between atoms: _124  and  _127
REMARK   48  A    between atoms: _127  and  _128
REMARK   49  A    between atoms: _131  and  _133
REMARK   50  A    between atoms: _133  and  _134
REMARK   51  A    between atoms: _133  and  _136
REMARK   52  A    between atoms: _136  and  _137
REMARK   53  A    between atoms: _142  and  _144
REMARK   54  A    between atoms: _144  and  _145
REMARK   55  A    between atoms: _144  and  _147
REMARK   56  A    between atoms: _147  and  _148
REMARK   57  A    between atoms: _148  and  _149
REMARK   58  A    between atoms: _149  and  _150
REMARK   59  A    between atoms: _159  and  _161
REMARK   60  A    between atoms: _161  and  _162
REMARK   61  A    between atoms: _161  and  _164
REMARK   62  A    between atoms: _164  and  _165
REMARK   63  A    between atoms: _171  and  _173
REMARK   64  A    between atoms: _173  and  _174
REMARK   65  A    between atoms: _176  and  _178
REMARK   66  A    between atoms: _178  and  _179
REMARK   67  A    between atoms: _178  and  _181
REMARK   68  A    between atoms: _181  and  _182
REMARK   69  A    between atoms: _192  and  _194
REMARK   70  A    between atoms: _194  and  _195
REMARK   71  A    between atoms: _194  and  _197
REMARK   72  A    between atoms: _199  and  _201
REMARK   73  A    between atoms: _201  and  _202
REMARK   74  A    between atoms: _201  and  _204
REMARK   75  A    between atoms: _207  and  _209
REMARK   76  A    between atoms: _209  and  _210
REMARK   77  A    between atoms: _212  and  _214
REMARK   78  A    between atoms: _214  and  _215
REMARK   79  A    between atoms: _214  and  _217
REMARK   80  A    between atoms: _217  and  _218
REMARK   81  A    between atoms: _223  and  _224
REMARK   82  A    between atoms: _226  and  _228
REMARK   83  A    between atoms: _228  and  _229
REMARK   84  A    between atoms: _228  and  _231
REMARK   85  A    between atoms: _231  and  _232
REMARK   86  A    between atoms: _235  and  _237
REMARK   87  A    between atoms: _237  and  _238
REMARK   88  A    between atoms: _237  and  _240
REMARK   89  A    between atoms: _240  and  _241
REMARK   90  A    between atoms: _243  and  _245
REMARK   91  A    between atoms: _245  and  _246
REMARK   92  A    between atoms: _245  and  _248
REMARK   93  A    between atoms: _248  and  _249
REMARK   94  A    between atoms: _252  and  _254
REMARK   95  A    between atoms: _254  and  _255
REMARK   96  A    between atoms: _254  and  _257
REMARK   97  A    between atoms: _257  and  _258
REMARK   98  A    between atoms: _258  and  _259
REMARK   99  A    between atoms: _264  and  _266
REMARK  100  A    between atoms: _266  and  _267
REMARK  101  A    between atoms: _269  and  _271
REMARK  102  A    between atoms: _271  and  _272
REMARK  103  A    between atoms: _271  and  _274
REMARK  104  A    between atoms: _274  and  _275
REMARK  105  A    between atoms: _278  and  _280
REMARK  106  A    between atoms: _280  and  _281
REMARK  107  A    between atoms: _280  and  _283
REMARK  108  A    between atoms: _283  and  _284
REMARK                            x       y       z     vdW  Elec       q    Type
REMARK                         _______ _______ _______ _____ _____    ______ ____
ROOT
ATOM      1  CB  PHE A   1     -14.909  19.169   8.919  0.00  0.00    +0.051 C 
ENDROOT
BRANCH   1   2
ATOM      2  CG  PHE A   1     -14.198  20.459   9.217  0.00  0.00    -0.020 A 
ATOM      3  CD2 PHE A   1     -12.823  20.493   9.385  0.00  0.00    -0.004 A 
ATOM      4  CE2 PHE A   1     -12.171  21.688   9.660  0.00  0.00    -0.000 A 
ATOM      5  CZ  PHE A   1     -12.894  22.858   9.758  0.00  0.00    -0.000 A 
ATOM      6  CE1 PHE A   1     -14.264  22.833   9.583  0.00  0.00    -0.000 A 
ATOM      7  CD1 PHE A   1     -14.906  21.643   9.315  0.00  0.00    -0.004 A 
ENDBRANCH   1   2
BRANCH   1   8
ATOM      8  CA  PHE A   1     -14.531  18.024   9.857  0.00  0.00    +0.137 C 
BRANCH   8   9
ATOM      9  N   PHE A   1     -15.369  16.857   9.612  0.00  0.00    -0.239 NA
ATOM     10  H   PHE A   1     -16.207  16.712  10.211  0.00  0.00    +0.142 HD
ENDBRANCH   8   9
BRANCH   8  11
ATOM     11  C   PHE A   1     -14.681  18.447  11.310  0.00  0.00    +0.224 C 
ATOM     12  O   PHE A   1     -15.746  18.908  11.710  0.00  0.00    -0.287 OA
ENDBRANCH   8  11
ENDBRANCH   1   8
TORSDOF 4
REMARK  Name = ../refined-set-2016/4k0o/4k0o_pocket.pdb
REMARK  108 active torsions:
REMARK  status: ('A' for Active; 'I' for Inactive)
REMARK    1  A    between atoms: _1  and  _3
REMARK    2  A    between atoms: _3  and  _4
REMARK    3  A    between atoms: _3  and  _6
REMARK    4  A    between atoms: _6  and  _7
REMARK    5  A    between atoms: _7  and  _8
REMARK    6  A    between atoms: _13  and  _15
REMARK    7  A    between atoms: _15  and  _16
REMARK    8  A    between atoms: _15  and  _18
REMARK    9  A    between atoms: _18  and  _19
REMARK   10  A    between atoms: _24  and  _26
REMARK   11  A    between atoms: _26  and  _27
REMARK   12  A    between atoms: _30  and  _32
REMARK   13  A    between atoms: _32  and  _33
REMARK   14  A    between atoms: _32  and  _35
REMARK   15  A    between atoms: _35  and  _36
REMARK   16  A    between atoms: _41  and  _43
REMARK   17  A    between atoms: _43  and  _44
REMARK   18  A    between atoms: _43  and  _46
REMARK   19  A    between atoms: _49  and  _51
REMARK   20  A    between atoms: _51  and  _52
REMARK   21  A    between atoms: _51  and  _54
REMARK   22  A    between atoms: _54  and  _55
REMARK   23  A    between atoms: _65  and  _67
REMARK   24  A    between atoms: _67  and  _68
REMARK   25  A    between atoms: _67  and  _70
REMARK   26  A    between atoms: _70  and  _71
REMARK   27  A    between atoms: _71  and  _72
REMARK   28  A    between atoms: _72  and  _73
REMARK   29  A    between atoms: _82  and  _84
REMARK   30  A    between atoms: _84  and  _85
REMARK   31  A    between atoms: _84  and  _87
REMARK   32  A    between atoms: _87  and  _88
REMARK   33  A    between atoms: _91  and  _93
REMARK   34  A    between atoms: _93  and  _94
REMARK   35  A    between atoms: _93  and  _96
REMARK   36  A    between atoms: _99  and  _101
REMARK   37  A    between atoms: _101  and  _102
REMARK   38  A    between atoms: _101  and  _104
REMARK   39  A    between atoms: _104  and  _105
REMARK   40  A    between atoms: _110  and  _111
REMARK   41  A    between atoms: _113  and  _115
REMARK   42  A    between atoms: _115  and  _116
REMARK   43  A    between atoms: _115  and  _118
REMARK   44  A    between atoms: _118  and  _119
REMARK   45  A    between atoms: _122  and  _124
REMARK   46  A    between atoms: _124  and  _125
REMARK   47  A    between atoms: _124  and  _127
REMARK   48  A    between atoms: _127  and  _128
REMARK   49  A    between atoms: _131  and  _133
REMARK   50  A    between atoms: _133  and  _134
REMARK   51  A    between atoms: _133  and  _136
REMARK   52  A    between atoms: _136  and  _137
REMARK   53  A    between atoms: _142  and  _144
REMARK   54  A    between atoms: _144  and  _145
REMARK   55  A    between atoms: _144  and  _147
REMARK   56  A    between atoms: _147  and  _148
REMARK   57  A    between atoms: _148  and  _149
REMARK   58  A    between atoms: _149  and  _150
REMARK   59  A    between atoms: _159  and  _161
REMARK   60  A    between atoms: _161  and  _162
REMARK   61  A    between atoms: _161  and  _164
REMARK   62  A    between atoms: _164  and  _165
REMARK   63  A    between atoms: _171  and  _173
REMARK   64  A    between atoms: _173  and  _174
REMARK   65  A    between atoms: _176  and  _178
REMARK   66  A    between atoms: _178  and  _179
REMARK   67  A    between atoms: _178  and  _181
REMARK   68  A    between atoms: _181  and  _182
REMARK   69  A    between atoms: _192  and  _194
REMARK   70  A    between atoms: _194  and  _195
REMARK   71  A    between atoms: _194  and  _197
REMARK   72  A    between atoms: _199  and  _201
REMARK   73  A    between atoms: _201  and  _202
REMARK   74  A    between atoms: _201  and  _204
REMARK   75  A    between atoms: _207  and  _209
REMARK   76  A    between atoms: _209  and  _210
REMARK   77  A    between atoms: _212  and  _214
REMARK   78  A    between atoms: _214  and  _215
REMARK   79  A    between atoms: _214  and  _217
REMARK   80  A    between atoms: _217  and  _218
REMARK   81  A    between atoms: _223  and  _224
REMARK   82  A    between atoms: _226  and  _228
REMARK   83  A    between atoms: _228  and  _229
REMARK   84  A    between atoms: _228  and  _231
REMARK   85  A    between atoms: _231  and  _232
REMARK   86  A    between atoms: _235  and  _237
REMARK   87  A    between atoms: _237  and  _238
REMARK   88  A    between atoms: _237  and  _240
REMARK   89  A    between atoms: _240  and  _241
REMARK   90  A    between atoms: _243  and  _245
REMARK   91  A    between atoms: _245  and  _246
REMARK   92  A    between atoms: _245  and  _248
REMARK   93  A    between atoms: _248  and  _249
REMARK   94  A    between atoms: _252  and  _254
REMARK   95  A    between atoms: _254  and  _255
REMARK   96  A    between atoms: _254  and  _257
REMARK   97  A    between atoms: _257  and  _258
REMARK   98  A    between atoms: _258  and  _259
REMARK   99  A    between atoms: _264  and  _266
REMARK  100  A    between atoms: _266  and  _267
REMARK  101  A    between atoms: _269  and  _271
REMARK  102  A    between atoms: _271  and  _272
REMARK  103  A    between atoms: _271  and  _274
REMARK  104  A    between atoms: _274  and  _275
REMARK  105  A    between atoms: _278  and  _280
REMARK  106  A    between atoms: _280  and  _281
REMARK  107  A    between atoms: _280  and  _283
REMARK  108  A    between atoms: _283  and  _284
REMARK                            x       y       z     vdW  Elec       q    Type
REMARK                         _______ _______ _______ _____ _____    ______ ____
ROOT
ATOM      1  C   TRP A   2     -14.127  26.892  14.211  0.00  0.00    +0.241 C 
ATOM      2  N   CYS A   3     -13.576  27.978  14.724  0.00  0.00    -0.296 N 
ATOM      3  H   CYS A   3     -12.543  28.027  14.835  0.00  0.00    +0.150 HD
ATOM      4  O   TRP A   2     -15.337  26.775  14.034  0.00  0.00    -0.273 OA
ENDROOT
BRANCH   1   5
ATOM      5  CA  TRP A   2     -13.168  25.785  13.828  0.00  0.00    +0.153 C 
BRANCH   5   7
ATOM      6  C   GLY A   1     -13.376  23.385  13.351  0.00  0.00    +0.240 C 
ATOM      7  N   TRP A   2     -13.932  24.583  13.518  0.00  0.00    -0.297 N 
ATOM      8  H   TRP A   2     -14.964  24.665  13.422  0.00  0.00    +0.150 HD
ATOM      9  O   GLY A   1     -12.164  23.178  13.429  0.00  0.00    -0.274 OA
BRANCH   6  10
ATOM     10  CA  GLY A   1     -14.348  22.264  13.042  0.00  0.00    +0.169 C 
BRANCH  10  11
ATOM     11  N   GLY A   1     -13.790  20.929  12.959  0.00  0.00    -0.236 NA
ATOM     12  H   GLY A   1     -13.076  20.715  12.233  0.00  0.00    +0.142 HD
ENDBRANCH  10  11
ENDBRANCH   6  10
ENDBRANCH   5   7
BRANCH   5  13
ATOM     13  CB  TRP A   2     -12.342  26.233  12.627  0.00  0.00    +0.057 C 
BRANCH  13  14
ATOM     14  CG  TRP A   2     -13.155  26.852  11.527  0.00  0.00    -0.002 A 
ATOM     15  CD2 TRP A   2     -13.055  28.195  11.038  0.00  0.00    +0.013 A 
ATOM     16  CE3 TRP A   2     -12.268  29.297  11.380  0.00  0.00    +0.001 A 
ATOM     17  CZ3 TRP A   2     -12.440  30.477  10.686  0.00  0.00    +0.000 A 
ATOM     18  CH2 TRP A   2     -13.374  30.579   9.654  0.00  0.00    +0.001 A 
ATOM     19  CZ2 TRP A   2     -14.162  29.522   9.296  0.00  0.00    +0.017 A 
ATOM     20  CE2 TRP A   2     -13.994  28.330   9.996  0.00  0.00    +0.056 A 
ATOM     21  NE1 TRP A   2     -14.630  27.126   9.860  0.00  0.00    -0.352 N 
ATOM     22  HE1 TRP A   2     -15.381  26.913   9.172  0.00  0.00    +0.166 HD
ATOM     23  CD1 TRP A   2     -14.116  26.245  10.779  0.00  0.00    +0.068 A 
ENDBRANCH  13  14
ENDBRANCH   5  13
ENDBRANCH   1   5
BRANCH   2  24
ATOM     24  CA  CYS A   3     -14.391  29.099  15.133  0.00  0.00    +0.160 C 
BRANCH  24  25
ATOM     25  C   CYS A   3     -13.881  30.374  14.485  0.00  0.00    +0.242 C 
ATOM     26  O   CYS A   3     -12.671  30.606  14.416  0.00  0.00    -0.273 OA
ATOM     27  N   VAL A   4     -14.806  31.185  13.982  0.00  0.00    -0.297 N 
ATOM     28  H   VAL A   4     -15.799  30.878  13.958  0.00  0.00    +0.150 HD
BRANCH  27  29
ATOM     29  CA  VAL A   4     -14.446  32.496  13.465  0.00  0.00    +0.149 C 
BRANCH  29  30
ATOM     30  C   VAL A   4     -14.137  33.398  14.642  0.00  0.00    +0.241 C 
ATOM     31  O   VAL A   4     -14.750  33.273  15.698  0.00  0.00    -0.273 OA
ATOM     32  N   GLY A   5     -13.184  34.306  14.467  0.00  0.00    -0.296 N 
ATOM     33  H   GLY A   5     -12.611  34.286  13.600  0.00  0.00    +0.150 HD
BRANCH  32  34
ATOM     34  CA  GLY A   5     -12.931  35.325  15.468  0.00  0.00    +0.163 C 
BRANCH  34  35
ATOM     35  C   GLY A   5     -14.036  36.367  15.454  0.00  0.00    +0.229 C 
ATOM     36  O   GLY A   5     -15.215  36.033  15.309  0.00  0.00    -0.286 OA
ENDBRANCH  34  35
ENDBRANCH  32  34
ENDBRANCH  29  30
BRANCH  29  37
ATOM     37  CB  VAL A   4     -15.591  33.146  12.658  0.00  0.00    +0.027 C 
ATOM     38  CG2 VAL A   4     -16.933  32.856  13.309  0.00  0.00    +0.002 C 
ATOM     39  CG1 VAL A   4     -15.575  32.678  11.218  0.00  0.00    +0.002 C 
ENDBRANCH  29  37
ENDBRANCH  27  29
ENDBRANCH  24  25
BRANCH  24  40
ATOM     40  CB  CYS A   3     -14.364  29.216  16.653  0.00  0.00    +0.098 C 
ATOM     41  SG  CYS A   3     -14.378  27.608  17.457  0.00  0.00    -0.080 S 
ENDBRANCH  24  40
ENDBRANCH   2  24
TORSDOF 14
REMARK  Name = ../refined-set-2016/4k0o/4k0o_pocket.pdb
REMARK  108 active torsions:
REMARK  status: ('A' for Active; 'I' for Inactive)
REMARK    1  A    between atoms: _1  and  _3
REMARK    2  A    between atoms: _3  and  _4
REMARK    3  A    between atoms: _3  and  _6
REMARK    4  A    between atoms: _6  and  _7
REMARK    5  A    between atoms: _7  and  _8
REMARK    6  A    between atoms: _13  and  _15
REMARK    7  A    between atoms: _15  and  _16
REMARK    8  A    between atoms: _15  and  _18
REMARK    9  A    between atoms: _18  and  _19
REMARK   10  A    between atoms: _24  and  _26
REMARK   11  A    between atoms: _26  and  _27
REMARK   12  A    between atoms: _30  and  _32
REMARK   13  A    between atoms: _32  and  _33
REMARK   14  A    between atoms: _32  and  _35
REMARK   15  A    between atoms: _35  and  _36
REMARK   16  A    between atoms: _41  and  _43
REMARK   17  A    between atoms: _43  and  _44
REMARK   18  A    between atoms: _43  and  _46
REMARK   19  A    between atoms: _49  and  _51
REMARK   20  A    between atoms: _51  and  _52
REMARK   21  A    between atoms: _51  and  _54
REMARK   22  A    between atoms: _54  and  _55
REMARK   23  A    between atoms: _65  and  _67
REMARK   24  A    between atoms: _67  and  _68
REMARK   25  A    between atoms: _67  and  _70
REMARK   26  A    between atoms: _70  and  _71
REMARK   27  A    between atoms: _71  and  _72
REMARK   28  A    between atoms: _72  and  _73
REMARK   29  A    between atoms: _82  and  _84
REMARK   30  A    between atoms: _84  and  _85
REMARK   31  A    between atoms: _84  and  _87
REMARK   32  A    between atoms: _87  and  _88
REMARK   33  A    between atoms: _91  and  _93
REMARK   34  A    between atoms: _93  and  _94
REMARK   35  A    between atoms: _93  and  _96
REMARK   36  A    between atoms: _99  and  _101
REMARK   37  A    between atoms: _101  and  _102
REMARK   38  A    between atoms: _101  and  _104
REMARK   39  A    between atoms: _104  and  _105
REMARK   40  A    between atoms: _110  and  _111
REMARK   41  A    between atoms: _113  and  _115
REMARK   42  A    between atoms: _115  and  _116
REMARK   43  A    between atoms: _115  and  _118
REMARK   44  A    between atoms: _118  and  _119
REMARK   45  A    between atoms: _122  and  _124
REMARK   46  A    between atoms: _124  and  _125
REMARK   47  A    between atoms: _124  and  _127
REMARK   48  A    between atoms: _127  and  _128
REMARK   49  A    between atoms: _131  and  _133
REMARK   50  A    between atoms: _133  and  _134
REMARK   51  A    between atoms: _133  and  _136
REMARK   52  A    between atoms: _136  and  _137
REMARK   53  A    between atoms: _142  and  _144
REMARK   54  A    between atoms: _144  and  _145
REMARK   55  A    between atoms: _144  and  _147
REMARK   56  A    between atoms: _147  and  _148
REMARK   57  A    between atoms: _148  and  _149
REMARK   58  A    between atoms: _149  and  _150
REMARK   59  A    between atoms: _159  and  _161
REMARK   60  A    between atoms: _161  and  _162
REMARK   61  A    between atoms: _161  and  _164
REMARK   62  A    between atoms: _164  and  _165
REMARK   63  A    between atoms: _171  and  _173
REMARK   64  A    between atoms: _173  and  _174
REMARK   65  A    between atoms: _176  and  _178
REMARK   66  A    between atoms: _178  and  _179
REMARK   67  A    between atoms: _178  and  _181
REMARK   68  A    between atoms: _181  and  _182
REMARK   69  A    between atoms: _192  and  _194
REMARK   70  A    between atoms: _194  and  _195
REMARK   71  A    between atoms: _194  and  _197
REMARK   72  A    between atoms: _199  and  _201
REMARK   73  A    between atoms: _201  and  _202
REMARK   74  A    between atoms: _201  and  _204
REMARK   75  A    between atoms: _207  and  _209
REMARK   76  A    between atoms: _209  and  _210
REMARK   77  A    between atoms: _212  and  _214
REMARK   78  A    between atoms: _214  and  _215
REMARK   79  A    between atoms: _214  and  _217
REMARK   80  A    between atoms: _217  and  _218
REMARK   81  A    between atoms: _223  and  _224
REMARK   82  A    between atoms: _226  and  _228
REMARK   83  A    between atoms: _228  and  _229
REMARK   84  A    between atoms: _228  and  _231
REMARK   85  A    between atoms: _231  and  _232
REMARK   86  A    between atoms: _235  and  _237
REMARK   87  A    between atoms: _237  and  _238
REMARK   88  A    between atoms: _237  and  _240
REMARK   89  A    between atoms: _240  and  _241
REMARK   90  A    between atoms: _243  and  _245
REMARK   91  A    between atoms: _245  and  _246
REMARK   92  A    between atoms: _245  and  _248
REMARK   93  A    between atoms: _248  and  _249
REMARK   94  A    between atoms: _252  and  _254
REMARK   95  A    between atoms: _254  and  _255
REMARK   96  A    between atoms: _254  and  _257
REMARK   97  A    between atoms: _257  and  _258
REMARK   98  A    between atoms: _258  and  _259
REMARK   99  A    between atoms: _264  and  _266
REMARK  100  A    between atoms: _266  and  _267
REMARK  101  A    between atoms: _269  and  _271
REMARK  102  A    between atoms: _271  and  _272
REMARK  103  A    between atoms: _271  and  _274
REMARK  104  A    between atoms: _274  and  _275
REMARK  105  A    between atoms: _278  and  _280
REMARK  106  A    between atoms: _280  and  _281
REMARK  107  A    between atoms: _280  and  _283
REMARK  108  A    between atoms: _283  and  _284
REMARK                            x       y       z     vdW  Elec       q    Type
REMARK                         _______ _______ _______ _____ _____    ______ ____
ROOT
ATOM      1  CA  THR A   4     -17.458  31.237   5.374  0.00  0.00    +0.176 C 
ENDROOT
BRANCH   1   2
ATOM      2  C   THR A   4     -17.071  29.823   5.787  0.00  0.00    +0.243 C 
ATOM      3  O   THR A   4     -15.930  29.565   6.165  0.00  0.00    -0.273 OA
ATOM      4  N   GLN A   5     -18.030  28.906   5.703  0.00  0.00    -0.297 N 
ATOM      5  H   GLN A   5     -19.006  29.208   5.509  0.00  0.00    +0.150 HD
BRANCH   4   6
ATOM      6  CA  GLN A   5     -17.745  27.490   5.876  0.00  0.00    +0.149 C 
BRANCH   6   7
ATOM      7  C   GLN A   5     -17.984  26.790   4.552  0.00  0.00    +0.241 C 
ATOM      8  N   GLY A   6     -16.983  26.047   4.095  0.00  0.00    -0.295 N 
ATOM      9  H   GLY A   6     -16.100  25.991   4.641  0.00  0.00    +0.150 HD
ATOM     10  O   GLN A   5     -19.050  26.933   3.948  0.00  0.00    -0.273 OA
BRANCH   8  11
ATOM     11  CA  GLY A   6     -17.095  25.313   2.853  0.00  0.00    +0.176 C 
BRANCH  11  12
ATOM     12  C   GLY A   6     -17.024  23.816   3.077  0.00  0.00    +0.243 C 
ATOM     13  O   GLY A   6     -16.886  23.357   4.212  0.00  0.00    -0.273 OA
ATOM     14  N   LEU A   7     -17.116  23.060   1.989  0.00  0.00    -0.297 N 
ATOM     15  H   LEU A   7     -17.213  23.521   1.062  0.00  0.00    +0.150 HD
BRANCH  14  16
ATOM     16  CA  LEU A   7     -17.085  21.609   2.053  0.00  0.00    +0.149 C 
BRANCH  16  17
ATOM     17  C   LEU A   7     -16.568  21.005   0.752  0.00  0.00    +0.241 C 
ATOM     18  N   SER A   8     -16.193  19.732   0.803  0.00  0.00    -0.296 N 
ATOM     19  H   SER A   8     -16.191  19.242   1.720  0.00  0.00    +0.150 HD
ATOM     20  O   LEU A   7     -16.495  21.683  -0.270  0.00  0.00    -0.273 OA
BRANCH  18  21
ATOM     21  CA  SER A   8     -15.784  19.001  -0.392  0.00  0.00    +0.166 C 
BRANCH  21  22
ATOM     22  CB  SER A   8     -16.227  17.548  -0.318  0.00  0.00    +0.229 C 
ATOM     23  OG  SER A   8     -16.308  16.967   0.760  0.00  0.00    -0.286 OA
ENDBRANCH  21  22
BRANCH  21  24
ATOM     24  C   SER A   8     -14.269  19.060  -0.590  0.00  0.00    +0.165 C 
BRANCH  24  25
ATOM     25  O   SER A   8     -13.603  18.191   0.305  0.00  0.00    -0.380 OA
ATOM     26  H   SER A   8     -13.907  17.262   0.149  0.00  0.00    +0.211 HD
ENDBRANCH  24  25
ENDBRANCH  21  24
ENDBRANCH  18  21
ENDBRANCH  16  17
BRANCH  16  27
ATOM     27  CB  LEU A   7     -18.475  21.067   2.402  0.00  0.00    +0.029 C 
BRANCH  27  28
ATOM     28  CG  LEU A   7     -19.698  21.610   1.659  0.00  0.00    +0.002 C 
ATOM     29  CD2 LEU A   7     -20.939  21.456   2.518  0.00  0.00    +0.000 C 
ATOM     30  CD1 LEU A   7     -19.893  20.917   0.326  0.00  0.00    +0.000 C 
ENDBRANCH  27  28
ENDBRANCH  16  27
ENDBRANCH  14  16
ENDBRANCH  11  12
ENDBRANCH   8  11
ENDBRANCH   6   7
BRANCH   6  31
ATOM     31  CB  GLN A   5     -18.626  26.869   6.963  0.00  0.00    +0.039 C 
BRANCH  31  32
ATOM     32  CG  GLN A   5     -18.461  25.362   7.108  0.00  0.00    +0.087 C 
BRANCH  32  33
ATOM     33  CD  GLN A   5     -17.023  24.946   7.344  0.00  0.00    +0.219 C 
ATOM     34  OE1 GLN A   5     -16.275  25.619   8.052  0.00  0.00    -0.275 OA
ATOM     35  NE2 GLN A   5     -16.628  23.828   6.748  0.00  0.00    -0.329 N 
ATOM     36 HE21 GLN A   5     -15.652  23.490   6.871  0.00  0.00    +0.145 HD
ATOM     37 HE22 GLN A   5     -17.294  23.290   6.158  0.00  0.00    +0.145 HD
ENDBRANCH  32  33
ENDBRANCH  31  32
ENDBRANCH   6  31
ENDBRANCH   4   6
ENDBRANCH   1   2
BRANCH   1  40
ATOM     38  C   SER A   3     -16.993  33.370   6.448  0.00  0.00    +0.243 C 
ATOM     39  O   SER A   3     -18.186  33.601   6.615  0.00  0.00    -0.273 OA
ATOM     40  N   THR A   4     -16.545  32.248   5.895  0.00  0.00    -0.295 N 
ATOM     41  H   THR A   4     -15.519  32.087   5.832  0.00  0.00    +0.150 HD
BRANCH  38  42
ATOM     42  CA  SER A   3     -15.945  34.381   6.882  0.00  0.00    +0.178 C 
BRANCH  42  44
ATOM     43  C   LEU A   2     -16.156  36.598   7.883  0.00  0.00    +0.241 C 
ATOM     44  N   SER A   3     -16.558  35.334   7.797  0.00  0.00    -0.295 N 
ATOM     45  H   SER A   3     -17.339  35.014   8.405  0.00  0.00    +0.150 HD
ATOM     46  O   LEU A   2     -15.213  37.054   7.230  0.00  0.00    -0.273 OA
BRANCH  43  47
ATOM     47  CA  LEU A   2     -16.936  37.470   8.860  0.00  0.00    +0.149 C 
BRANCH  47  50
ATOM     48  C   TYR A   1     -15.840  38.031  10.940  0.00  0.00    +0.239 C 
ATOM     49  O   TYR A   1     -16.328  37.046  11.489  0.00  0.00    -0.274 OA
ATOM     50  N   LEU A   2     -16.068  38.322   9.665  0.00  0.00    -0.297 N 
ATOM     51  H   LEU A   2     -15.626  39.161   9.238  0.00  0.00    +0.150 HD
BRANCH  48  52
ATOM     52  CA  TYR A   1     -14.941  38.980  11.722  0.00  0.00    +0.149 C 
BRANCH  52  53
ATOM     53  N   TYR A   1     -14.868  38.520  13.104  0.00  0.00    -0.238 NA
ATOM     54  H   TYR A   1     -14.994  37.506  13.299  0.00  0.00    +0.142 HD
ENDBRANCH  52  53
BRANCH  52  55
ATOM     55  CB  TYR A   1     -13.544  39.039  11.097  0.00  0.00    +0.053 C 
BRANCH  55  56
ATOM     56  CG  TYR A   1     -12.834  37.710  11.051  0.00  0.00    -0.020 A 
ATOM     57  CD2 TYR A   1     -12.277  37.164  12.195  0.00  0.00    -0.001 A 
ATOM     58  CE2 TYR A   1     -11.626  35.954  12.161  0.00  0.00    +0.036 A 
ATOM     59  CZ  TYR A   1     -11.519  35.271  10.971  0.00  0.00    +0.134 A 
ATOM     60  CE1 TYR A   1     -12.058  35.792   9.816  0.00  0.00    +0.036 A 
ATOM     61  CD1 TYR A   1     -12.711  37.006   9.860  0.00  0.00    -0.001 A 
BRANCH  59  62
ATOM     62  OH  TYR A   1     -10.866  34.063  10.945  0.00  0.00    -0.506 OA
ATOM     63  HH  TYR A   1     -10.545  33.843  11.855  0.00  0.00    +0.292 HD
ENDBRANCH  59  62
ENDBRANCH  55  56
ENDBRANCH  52  55
ENDBRANCH  48  52
ENDBRANCH  47  50
BRANCH  47  64
ATOM     64  CB  LEU A   2     -17.976  38.302   8.109  0.00  0.00    +0.029 C 
BRANCH  64  65
ATOM     65  CG  LEU A   2     -19.096  38.895   8.966  0.00  0.00    +0.002 C 
ATOM     66  CD2 LEU A   2     -19.998  37.798   9.470  0.00  0.00    +0.000 C 
ATOM     67  CD1 LEU A   2     -19.900  39.894   8.163  0.00  0.00    +0.000 C 
ENDBRANCH  64  65
ENDBRANCH  47  64
ENDBRANCH  43  47
ENDBRANCH  42  44
BRANCH  42  68
ATOM     68  CB  SER A   3     -14.773  33.668   7.558  0.00  0.00    +0.166 C 
BRANCH  68  69
ATOM     69  OG  SER A   3     -13.973  32.989   6.606  0.00  0.00    -0.380 OA
ATOM     70  H   SER A   3     -13.614  33.641   5.953  0.00  0.00    +0.211 HD
ENDBRANCH  68  69
ENDBRANCH  42  68
ENDBRANCH  38  42
ENDBRANCH   1  40
BRANCH   1  71
ATOM     71  CB  THR A   4     -17.497  31.271   3.850  0.00  0.00    +0.137 C 
ATOM     72  CG2 THR A   4     -18.108  32.568   3.365  0.00  0.00    +0.034 C 
BRANCH  71  73
ATOM     73  OG1 THR A   4     -16.161  31.173   3.353  0.00  0.00    -0.382 OA
ATOM     74  HG1 THR A   4     -16.176  31.194   2.363  0.00  0.00    +0.210 HD
ENDBRANCH  71  73
ENDBRANCH   1  71
TORSDOF 32
REMARK  Name = ../refined-set-2016/4k0o/4k0o_pocket.pdb
REMARK  108 active torsions:
REMARK  status: ('A' for Active; 'I' for Inactive)
REMARK    1  A    between atoms: _1  and  _3
REMARK    2  A    between atoms: _3  and  _4
REMARK    3  A    between atoms: _3  and  _6
REMARK    4  A    between atoms: _6  and  _7
REMARK    5  A    between atoms: _7  and  _8
REMARK    6  A    between atoms: _13  and  _15
REMARK    7  A    between atoms: _15  and  _16
REMARK    8  A    between atoms: _15  and  _18
REMARK    9  A    between atoms: _18  and  _19
REMARK   10  A    between atoms: _24  and  _26
REMARK   11  A    between atoms: _26  and  _27
REMARK   12  A    between atoms: _30  and  _32
REMARK   13  A    between atoms: _32  and  _33
REMARK   14  A    between atoms: _32  and  _35
REMARK   15  A    between atoms: _35  and  _36
REMARK   16  A    between atoms: _41  and  _43
REMARK   17  A    between atoms: _43  and  _44
REMARK   18  A    between atoms: _43  and  _46
REMARK   19  A    between atoms: _49  and  _51
REMARK   20  A    between atoms: _51  and  _52
REMARK   21  A    between atoms: _51  and  _54
REMARK   22  A    between atoms: _54  and  _55
REMARK   23  A    between atoms: _65  and  _67
REMARK   24  A    between atoms: _67  and  _68
REMARK   25  A    between atoms: _67  and  _70
REMARK   26  A    between atoms: _70  and  _71
REMARK   27  A    between atoms: _71  and  _72
REMARK   28  A    between atoms: _72  and  _73
REMARK   29  A    between atoms: _82  and  _84
REMARK   30  A    between atoms: _84  and  _85
REMARK   31  A    between atoms: _84  and  _87
REMARK   32  A    between atoms: _87  and  _88
REMARK   33  A    between atoms: _91  and  _93
REMARK   34  A    between atoms: _93  and  _94
REMARK   35  A    between atoms: _93  and  _96
REMARK   36  A    between atoms: _99  and  _101
REMARK   37  A    between atoms: _101  and  _102
REMARK   38  A    between atoms: _101  and  _104
REMARK   39  A    between atoms: _104  and  _105
REMARK   40  A    between atoms: _110  and  _111
REMARK   41  A    between atoms: _113  and  _115
REMARK   42  A    between atoms: _115  and  _116
REMARK   43  A    between atoms: _115  and  _118
REMARK   44  A    between atoms: _118  and  _119
REMARK   45  A    between atoms: _122  and  _124
REMARK   46  A    between atoms: _124  and  _125
REMARK   47  A    between atoms: _124  and  _127
REMARK   48  A    between atoms: _127  and  _128
REMARK   49  A    between atoms: _131  and  _133
REMARK   50  A    between atoms: _133  and  _134
REMARK   51  A    between atoms: _133  and  _136
REMARK   52  A    between atoms: _136  and  _137
REMARK   53  A    between atoms: _142  and  _144
REMARK   54  A    between atoms: _144  and  _145
REMARK   55  A    between atoms: _144  and  _147
REMARK   56  A    between atoms: _147  and  _148
REMARK   57  A    between atoms: _148  and  _149
REMARK   58  A    between atoms: _149  and  _150
REMARK   59  A    between atoms: _159  and  _161
REMARK   60  A    between atoms: _161  and  _162
REMARK   61  A    between atoms: _161  and  _164
REMARK   62  A    between atoms: _164  and  _165
REMARK   63  A    between atoms: _171  and  _173
REMARK   64  A    between atoms: _173  and  _174
REMARK   65  A    between atoms: _176  and  _178
REMARK   66  A    between atoms: _178  and  _179
REMARK   67  A    between atoms: _178  and  _181
REMARK   68  A    between atoms: _181  and  _182
REMARK   69  A    between atoms: _192  and  _194
REMARK   70  A    between atoms: _194  and  _195
REMARK   71  A    between atoms: _194  and  _197
REMARK   72  A    between atoms: _199  and  _201
REMARK   73  A    between atoms: _201  and  _202
REMARK   74  A    between atoms: _201  and  _204
REMARK   75  A    between atoms: _207  and  _209
REMARK   76  A    between atoms: _209  and  _210
REMARK   77  A    between atoms: _212  and  _214
REMARK   78  A    between atoms: _214  and  _215
REMARK   79  A    between atoms: _214  and  _217
REMARK   80  A    between atoms: _217  and  _218
REMARK   81  A    between atoms: _223  and  _224
REMARK   82  A    between atoms: _226  and  _228
REMARK   83  A    between atoms: _228  and  _229
REMARK   84  A    between atoms: _228  and  _231
REMARK   85  A    between atoms: _231  and  _232
REMARK   86  A    between atoms: _235  and  _237
REMARK   87  A    between atoms: _237  and  _238
REMARK   88  A    between atoms: _237  and  _240
REMARK   89  A    between atoms: _240  and  _241
REMARK   90  A    between atoms: _243  and  _245
REMARK   91  A    between atoms: _245  and  _246
REMARK   92  A    between atoms: _245  and  _248
REMARK   93  A    between atoms: _248  and  _249
REMARK   94  A    between atoms: _252  and  _254
REMARK   95  A    between atoms: _254  and  _255
REMARK   96  A    between atoms: _254  and  _257
REMARK   97  A    between atoms: _257  and  _258
REMARK   98  A    between atoms: _258  and  _259
REMARK   99  A    between atoms: _264  and  _266
REMARK  100  A    between atoms: _266  and  _267
REMARK  101  A    between atoms: _269  and  _271
REMARK  102  A    between atoms: _271  and  _272
REMARK  103  A    between atoms: _271  and  _274
REMARK  104  A    between atoms: _274  and  _275
REMARK  105  A    between atoms: _278  and  _280
REMARK  106  A    between atoms: _280  and  _281
REMARK  107  A    between atoms: _280  and  _283
REMARK  108  A    between atoms: _283  and  _284
REMARK                            x       y       z     vdW  Elec       q    Type
REMARK                         _______ _______ _______ _____ _____    ______ ____
ROOT
ATOM      1  O   HOH     1      -5.681  27.533   8.215  0.00  0.00    +0.000 OA
ENDROOT
TORSDOF 0
REMARK  Name = ../refined-set-2016/4k0o/4k0o_pocket.pdb
REMARK  108 active torsions:
REMARK  status: ('A' for Active; 'I' for Inactive)
REMARK    1  A    between atoms: _1  and  _3
REMARK    2  A    between atoms: _3  and  _4
REMARK    3  A    between atoms: _3  and  _6
REMARK    4  A    between atoms: _6  and  _7
REMARK    5  A    between atoms: _7  and  _8
REMARK    6  A    between atoms: _13  and  _15
REMARK    7  A    between atoms: _15  and  _16
REMARK    8  A    between atoms: _15  and  _18
REMARK    9  A    between atoms: _18  and  _19
REMARK   10  A    between atoms: _24  and  _26
REMARK   11  A    between atoms: _26  and  _27
REMARK   12  A    between atoms: _30  and  _32
REMARK   13  A    between atoms: _32  and  _33
REMARK   14  A    between atoms: _32  and  _35
REMARK   15  A    between atoms: _35  and  _36
REMARK   16  A    between atoms: _41  and  _43
REMARK   17  A    between atoms: _43  and  _44
REMARK   18  A    between atoms: _43  and  _46
REMARK   19  A    between atoms: _49  and  _51
REMARK   20  A    between atoms: _51  and  _52
REMARK   21  A    between atoms: _51  and  _54
REMARK   22  A    between atoms: _54  and  _55
REMARK   23  A    between atoms: _65  and  _67
REMARK   24  A    between atoms: _67  and  _68
REMARK   25  A    between atoms: _67  and  _70
REMARK   26  A    between atoms: _70  and  _71
REMARK   27  A    between atoms: _71  and  _72
REMARK   28  A    between atoms: _72  and  _73
REMARK   29  A    between atoms: _82  and  _84
REMARK   30  A    between atoms: _84  and  _85
REMARK   31  A    between atoms: _84  and  _87
REMARK   32  A    between atoms: _87  and  _88
REMARK   33  A    between atoms: _91  and  _93
REMARK   34  A    between atoms: _93  and  _94
REMARK   35  A    between atoms: _93  and  _96
REMARK   36  A    between atoms: _99  and  _101
REMARK   37  A    between atoms: _101  and  _102
REMARK   38  A    between atoms: _101  and  _104
REMARK   39  A    between atoms: _104  and  _105
REMARK   40  A    between atoms: _110  and  _111
REMARK   41  A    between atoms: _113  and  _115
REMARK   42  A    between atoms: _115  and  _116
REMARK   43  A    between atoms: _115  and  _118
REMARK   44  A    between atoms: _118  and  _119
REMARK   45  A    between atoms: _122  and  _124
REMARK   46  A    between atoms: _124  and  _125
REMARK   47  A    between atoms: _124  and  _127
REMARK   48  A    between atoms: _127  and  _128
REMARK   49  A    between atoms: _131  and  _133
REMARK   50  A    between atoms: _133  and  _134
REMARK   51  A    between atoms: _133  and  _136
REMARK   52  A    between atoms: _136  and  _137
REMARK   53  A    between atoms: _142  and  _144
REMARK   54  A    between atoms: _144  and  _145
REMARK   55  A    between atoms: _144  and  _147
REMARK   56  A    between atoms: _147  and  _148
REMARK   57  A    between atoms: _148  and  _149
REMARK   58  A    between atoms: _149  and  _150
REMARK   59  A    between atoms: _159  and  _161
REMARK   60  A    between atoms: _161  and  _162
REMARK   61  A    between atoms: _161  and  _164
REMARK   62  A    between atoms: _164  and  _165
REMARK   63  A    between atoms: _171  and  _173
REMARK   64  A    between atoms: _173  and  _174
REMARK   65  A    between atoms: _176  and  _178
REMARK   66  A    between atoms: _178  and  _179
REMARK   67  A    between atoms: _178  and  _181
REMARK   68  A    between atoms: _181  and  _182
REMARK   69  A    between atoms: _192  and  _194
REMARK   70  A    between atoms: _194  and  _195
REMARK   71  A    between atoms: _194  and  _197
REMARK   72  A    between atoms: _199  and  _201
REMARK   73  A    between atoms: _201  and  _202
REMARK   74  A    between atoms: _201  and  _204
REMARK   75  A    between atoms: _207  and  _209
REMARK   76  A    between atoms: _209  and  _210
REMARK   77  A    between atoms: _212  and  _214
REMARK   78  A    between atoms: _214  and  _215
REMARK   79  A    between atoms: _214  and  _217
REMARK   80  A    between atoms: _217  and  _218
REMARK   81  A    between atoms: _223  and  _224
REMARK   82  A    between atoms: _226  and  _228
REMARK   83  A    between atoms: _228  and  _229
REMARK   84  A    between atoms: _228  and  _231
REMARK   85  A    between atoms: _231  and  _232
REMARK   86  A    between atoms: _235  and  _237
REMARK   87  A    between atoms: _237  and  _238
REMARK   88  A    between atoms: _237  and  _240
REMARK   89  A    between atoms: _240  and  _241
REMARK   90  A    between atoms: _243  and  _245
REMARK   91  A    between atoms: _245  and  _246
REMARK   92  A    between atoms: _245  and  _248
REMARK   93  A    between atoms: _248  and  _249
REMARK   94  A    between atoms: _252  and  _254
REMARK   95  A    between atoms: _254  and  _255
REMARK   96  A    between atoms: _254  and  _257
REMARK   97  A    between atoms: _257  and  _258
REMARK   98  A    between atoms: _258  and  _259
REMARK   99  A    between atoms: _264  and  _266
REMARK  100  A    between atoms: _266  and  _267
REMARK  101  A    between atoms: _269  and  _271
REMARK  102  A    between atoms: _271  and  _272
REMARK  103  A    between atoms: _271  and  _274
REMARK  104  A    between atoms: _274  and  _275
REMARK  105  A    between atoms: _278  and  _280
REMARK  106  A    between atoms: _280  and  _281
REMARK  107  A    between atoms: _280  and  _283
REMARK  108  A    between atoms: _283  and  _284
REMARK                            x       y       z     vdW  Elec       q    Type
REMARK                         _______ _______ _______ _____ _____    ______ ____
ROOT
ATOM      1  O   HOH     1     -10.271  27.860  15.857  0.00  0.00    +0.000 OA
ENDROOT
TORSDOF 0
