REMARK  Name = ../refined-set-2016/4agc/4agc_pocket.pdb
REMARK  228 active torsions:
REMARK  status: ('A' for Active; 'I' for Inactive)
REMARK    1  A    between atoms: _1  and  _3
REMARK    2  A    between atoms: _3  and  _4
REMARK    3  A    between atoms: _3  and  _6
REMARK    4  A    between atoms: _6  and  _7
REMARK    5  A    between atoms: _10  and  _12
REMARK    6  A    between atoms: _12  and  _13
REMARK    7  A    between atoms: _12  and  _15
REMARK    8  A    between atoms: _15  and  _16
REMARK    9  A    between atoms: _18  and  _20
REMARK   10  A    between atoms: _20  and  _21
REMARK   11  A    between atoms: _20  and  _23
REMARK   12  A    between atoms: _23  and  _24
REMARK   13  A    between atoms: _27  and  _29
REMARK   14  A    between atoms: _29  and  _30
REMARK   15  A    between atoms: _29  and  _32
REMARK   16  A    between atoms: _32  and  _33
REMARK   17  A    between atoms: _33  and  _34
REMARK   18  A    between atoms: _34  and  _35
REMARK   19  A    between atoms: _35  and  _36
REMARK   20  A    between atoms: _41  and  _42
REMARK   21  A    between atoms: _47  and  _49
REMARK   22  A    between atoms: _49  and  _50
REMARK   23  A    between atoms: _49  and  _52
REMARK   24  A    between atoms: _52  and  _53
REMARK   25  A    between atoms: _56  and  _58
REMARK   26  A    between atoms: _58  and  _59
REMARK   27  A    between atoms: _61  and  _63
REMARK   28  A    between atoms: _63  and  _64
REMARK   29  A    between atoms: _63  and  _66
REMARK   30  A    between atoms: _66  and  _67
REMARK   31  A    between atoms: _67  and  _68
REMARK   32  A    between atoms: _73  and  _75
REMARK   33  A    between atoms: _75  and  _76
REMARK   34  A    between atoms: _75  and  _78
REMARK   35  A    between atoms: _81  and  _83
REMARK   36  A    between atoms: _83  and  _84
REMARK   37  A    between atoms: _83  and  _86
REMARK   38  A    between atoms: _86  and  _87
REMARK   39  A    between atoms: _90  and  _92
REMARK   40  A    between atoms: _92  and  _93
REMARK   41  A    between atoms: _92  and  _95
REMARK   42  A    between atoms: _95  and  _96
REMARK   43  A    between atoms: _96  and  _97
REMARK   44  A    between atoms: _100  and  _102
REMARK   45  A    between atoms: _102  and  _103
REMARK   46  A    between atoms: _106  and  _108
REMARK   47  A    between atoms: _108  and  _109
REMARK   48  A    between atoms: _108  and  _111
REMARK   49  A    between atoms: _111  and  _112
REMARK   50  A    between atoms: _115  and  _117
REMARK   51  A    between atoms: _117  and  _118
REMARK   52  A    between atoms: _117  and  _120
REMARK   53  A    between atoms: _123  and  _125
REMARK   54  A    between atoms: _125  and  _126
REMARK   55  A    between atoms: _129  and  _131
REMARK   56  A    between atoms: _131  and  _132
REMARK   57  A    between atoms: _131  and  _134
REMARK   58  A    between atoms: _137  and  _139
REMARK   59  A    between atoms: _139  and  _140
REMARK   60  A    between atoms: _139  and  _142
REMARK   61  A    between atoms: _142  and  _143
REMARK   62  A    between atoms: _143  and  _144
REMARK   63  A    between atoms: _144  and  _145
REMARK   64  A    between atoms: _145  and  _146
REMARK   65  A    between atoms: _150  and  _152
REMARK   66  A    between atoms: _152  and  _153
REMARK   67  A    between atoms: _152  and  _155
REMARK   68  A    between atoms: _155  and  _156
REMARK   69  A    between atoms: _156  and  _157
REMARK   70  A    between atoms: _159  and  _161
REMARK   71  A    between atoms: _161  and  _162
REMARK   72  A    between atoms: _161  and  _164
REMARK   73  A    between atoms: _164  and  _165
REMARK   74  A    between atoms: _168  and  _170
REMARK   75  A    between atoms: _170  and  _171
REMARK   76  A    between atoms: _170  and  _173
REMARK   77  A    between atoms: _173  and  _174
REMARK   78  A    between atoms: _174  and  _175
REMARK   79  A    between atoms: _178  and  _180
REMARK   80  A    between atoms: _180  and  _181
REMARK   81  A    between atoms: _180  and  _183
REMARK   82  A    between atoms: _183  and  _184
REMARK   83  A    between atoms: _187  and  _189
REMARK   84  A    between atoms: _189  and  _190
REMARK   85  A    between atoms: _189  and  _192
REMARK   86  A    between atoms: _192  and  _193
REMARK   87  A    between atoms: _196  and  _198
REMARK   88  A    between atoms: _198  and  _199
REMARK   89  A    between atoms: _198  and  _201
REMARK   90  A    between atoms: _201  and  _202
REMARK   91  A    between atoms: _205  and  _207
REMARK   92  A    between atoms: _207  and  _208
REMARK   93  A    between atoms: _207  and  _210
REMARK   94  A    between atoms: _210  and  _211
REMARK   95  A    between atoms: _214  and  _216
REMARK   96  A    between atoms: _216  and  _217
REMARK   97  A    between atoms: _216  and  _219
REMARK   98  A    between atoms: _222  and  _224
REMARK   99  A    between atoms: _224  and  _225
REMARK  100  A    between atoms: _224  and  _227
REMARK  101  A    between atoms: _230  and  _232
REMARK  102  A    between atoms: _232  and  _233
REMARK  103  A    between atoms: _232  and  _235
REMARK  104  A    between atoms: _235  and  _236
REMARK  105  A    between atoms: _241  and  _243
REMARK  106  A    between atoms: _243  and  _244
REMARK  107  A    between atoms: _243  and  _246
REMARK  108  A    between atoms: _246  and  _247
REMARK  109  A    between atoms: _250  and  _252
REMARK  110  A    between atoms: _252  and  _253
REMARK  111  A    between atoms: _252  and  _255
REMARK  112  A    between atoms: _255  and  _256
REMARK  113  A    between atoms: _259  and  _261
REMARK  114  A    between atoms: _261  and  _262
REMARK  115  A    between atoms: _264  and  _266
REMARK  116  A    between atoms: _266  and  _267
REMARK  117  A    between atoms: _266  and  _269
REMARK  118  A    between atoms: _269  and  _270
REMARK  119  A    between atoms: _270  and  _271
REMARK  120  A    between atoms: _273  and  _275
REMARK  121  A    between atoms: _275  and  _276
REMARK  122  A    between atoms: _275  and  _278
REMARK  123  A    between atoms: _281  and  _283
REMARK  124  A    between atoms: _283  and  _284
REMARK  125  A    between atoms: _283  and  _286
REMARK  126  A    between atoms: _286  and  _287
REMARK  127  A    between atoms: _290  and  _292
REMARK  128  A    between atoms: _292  and  _293
REMARK  129  A    between atoms: _292  and  _295
REMARK  130  A    between atoms: _298  and  _300
REMARK  131  A    between atoms: _300  and  _301
REMARK  132  A    between atoms: _300  and  _303
REMARK  133  A    between atoms: _303  and  _304
REMARK  134  A    between atoms: _304  and  _305
REMARK  135  A    between atoms: _308  and  _310
REMARK  136  A    between atoms: _310  and  _311
REMARK  137  A    between atoms: _310  and  _313
REMARK  138  A    between atoms: _313  and  _314
REMARK  139  A    between atoms: _320  and  _322
REMARK  140  A    between atoms: _322  and  _323
REMARK  141  A    between atoms: _322  and  _325
REMARK  142  A    between atoms: _327  and  _329
REMARK  143  A    between atoms: _329  and  _330
REMARK  144  A    between atoms: _329  and  _332
REMARK  145  A    between atoms: _332  and  _333
REMARK  146  A    between atoms: _333  and  _334
REMARK  147  A    between atoms: _334  and  _335
REMARK  148  A    between atoms: _335  and  _336
REMARK  149  A    between atoms: _340  and  _342
REMARK  150  A    between atoms: _342  and  _343
REMARK  151  A    between atoms: _342  and  _345
REMARK  152  A    between atoms: _345  and  _346
REMARK  153  A    between atoms: _352  and  _354
REMARK  154  A    between atoms: _354  and  _355
REMARK  155  A    between atoms: _357  and  _359
REMARK  156  A    between atoms: _359  and  _360
REMARK  157  A    between atoms: _359  and  _362
REMARK  158  A    between atoms: _362  and  _363
REMARK  159  A    between atoms: _368  and  _370
REMARK  160  A    between atoms: _370  and  _371
REMARK  161  A    between atoms: _370  and  _373
REMARK  162  A    between atoms: _373  and  _374
REMARK  163  A    between atoms: _377  and  _379
REMARK  164  A    between atoms: _379  and  _380
REMARK  165  A    between atoms: _379  and  _382
REMARK  166  A    between atoms: _382  and  _383
REMARK  167  A    between atoms: _388  and  _390
REMARK  168  A    between atoms: _390  and  _391
REMARK  169  A    between atoms: _390  and  _393
REMARK  170  A    between atoms: _393  and  _394
REMARK  171  A    between atoms: _394  and  _395
REMARK  172  A    between atoms: _395  and  _396
REMARK  173  A    between atoms: _405  and  _407
REMARK  174  A    between atoms: _407  and  _408
REMARK  175  A    between atoms: _407  and  _410
REMARK  176  A    between atoms: _410  and  _411
REMARK  177  A    between atoms: _416  and  _418
REMARK  178  A    between atoms: _418  and  _419
REMARK  179  A    between atoms: _418  and  _421
REMARK  180  A    between atoms: _421  and  _422
REMARK  181  A    between atoms: _425  and  _427
REMARK  182  A    between atoms: _427  and  _428
REMARK  183  A    between atoms: _427  and  _430
REMARK  184  A    between atoms: _430  and  _431
REMARK  185  A    between atoms: _434  and  _436
REMARK  186  A    between atoms: _436  and  _437
REMARK  187  A    between atoms: _436  and  _439
REMARK  188  A    between atoms: _439  and  _440
REMARK  189  A    between atoms: _443  and  _445
REMARK  190  A    between atoms: _445  and  _446
REMARK  191  A    between atoms: _445  and  _448
REMARK  192  A    between atoms: _448  and  _449
REMARK  193  A    between atoms: _451  and  _453
REMARK  194  A    between atoms: _453  and  _454
REMARK  195  A    between atoms: _453  and  _456
REMARK  196  A    between atoms: _456  and  _457
REMARK  197  A    between atoms: _457  and  _458
REMARK  198  A    between atoms: _458  and  _459
REMARK  199  A    between atoms: _459  and  _460
REMARK  200  A    between atoms: _464  and  _466
REMARK  201  A    between atoms: _466  and  _467
REMARK  202  A    between atoms: _466  and  _469
REMARK  203  A    between atoms: _469  and  _470
REMARK  204  A    between atoms: _473  and  _475
REMARK  205  A    between atoms: _475  and  _476
REMARK  206  A    between atoms: _475  and  _478
REMARK  207  A    between atoms: _480  and  _482
REMARK  208  A    between atoms: _482  and  _483
REMARK  209  A    between atoms: _482  and  _485
REMARK  210  A    between atoms: _485  and  _486
REMARK  211  A    between atoms: _489  and  _491
REMARK  212  A    between atoms: _491  and  _492
REMARK  213  A    between atoms: _491  and  _494
REMARK  214  A    between atoms: _494  and  _495
REMARK  215  A    between atoms: _501  and  _503
REMARK  216  A    between atoms: _503  and  _504
REMARK  217  A    between atoms: _506  and  _508
REMARK  218  A    between atoms: _508  and  _509
REMARK  219  A    between atoms: _508  and  _511
REMARK  220  A    between atoms: _511  and  _512
REMARK  221  A    between atoms: _515  and  _517
REMARK  222  A    between atoms: _517  and  _518
REMARK  223  A    between atoms: _521  and  _523
REMARK  224  A    between atoms: _523  and  _524
REMARK  225  A    between atoms: _523  and  _526
REMARK  226  A    between atoms: _526  and  _527
REMARK  227  A    between atoms: _527  and  _528
REMARK  228  A    between atoms: _528  and  _529
REMARK                            x       y       z     vdW  Elec       q    Type
REMARK                         _______ _______ _______ _____ _____    ______ ____
ROOT
ATOM      1  CA  SER A   2     -26.368  -8.954  -3.020  0.00  0.00    +0.178 C 
ENDROOT
BRANCH   1   4
ATOM      2  C   LEU A   1     -27.353 -10.197  -4.841  0.00  0.00    +0.238 C 
ATOM      3  O   LEU A   1     -27.815 -11.028  -4.064  0.00  0.00    -0.274 OA
ATOM      4  N   SER A   2     -26.656  -9.144  -4.431  0.00  0.00    -0.295 N 
ATOM      5  H   SER A   2     -26.314  -8.450  -5.126  0.00  0.00    +0.150 HD
BRANCH   2   6
ATOM      6  CA  LEU A   1     -27.555 -10.337  -6.344  0.00  0.00    +0.145 C 
BRANCH   6   7
ATOM      7  N   LEU A   1     -27.175 -11.672  -6.774  0.00  0.00    -0.238 NA
ATOM      8  H   LEU A   1     -27.530 -12.496  -6.248  0.00  0.00    +0.142 HD
ENDBRANCH   6   7
BRANCH   6   9
ATOM      9  CB  LEU A   1     -29.016 -10.060  -6.707  0.00  0.00    +0.026 C 
BRANCH   9  10
ATOM     10  CG  LEU A   1     -29.995 -11.238  -6.810  0.00  0.00    +0.002 C 
ATOM     11  CD2 LEU A   1     -29.852 -12.163  -5.606  0.00  0.00    +0.000 C 
ATOM     12  CD1 LEU A   1     -29.748 -11.990  -8.108  0.00  0.00    +0.000 C 
ENDBRANCH   9  10
ENDBRANCH   6   9
ENDBRANCH   2   6
ENDBRANCH   1   4
BRANCH   1  13
ATOM     13  C   SER A   2     -27.319  -7.972  -2.352  0.00  0.00    +0.243 C 
ATOM     14  O   SER A   2     -27.542  -8.040  -1.144  0.00  0.00    -0.273 OA
ATOM     15  N   ILE A   3     -27.881  -7.059  -3.132  0.00  0.00    -0.298 N 
ATOM     16  H   ILE A   3     -27.579  -6.971  -4.123  0.00  0.00    +0.150 HD
BRANCH  15  17
ATOM     17  CA  ILE A   3     -28.917  -6.180  -2.612  0.00  0.00    +0.137 C 
BRANCH  17  18
ATOM     18  C   ILE A   3     -30.243  -6.933  -2.610  0.00  0.00    +0.227 C 
ATOM     19  O   ILE A   3     -30.765  -7.273  -3.667  0.00  0.00    -0.286 OA
ENDBRANCH  17  18
BRANCH  17  20
ATOM     20  CB  ILE A   3     -29.055  -4.911  -3.470  0.00  0.00    +0.026 C 
ATOM     21  CG2 ILE A   3     -30.175  -4.041  -2.929  0.00  0.00    +0.002 C 
BRANCH  20  22
ATOM     22  CG1 ILE A   3     -27.733  -4.137  -3.467  0.00  0.00    +0.002 C 
ATOM     23  CD1 ILE A   3     -27.772  -2.851  -4.257  0.00  0.00    +0.000 C 
ENDBRANCH  20  22
ENDBRANCH  17  20
ENDBRANCH  15  17
ENDBRANCH   1  13
BRANCH   1  24
ATOM     24  CB  SER A   2     -24.924  -8.495  -2.840  0.00  0.00    +0.166 C 
BRANCH  24  25
ATOM     25  OG  SER A   2     -24.042  -9.546  -3.189  0.00  0.00    -0.380 OA
ATOM     26  H   SER A   2     -23.107  -9.243  -3.071  0.00  0.00    +0.211 HD
ENDBRANCH  24  25
ENDBRANCH   1  24
TORSDOF 12
REMARK  Name = ../refined-set-2016/4agc/4agc_pocket.pdb
REMARK  228 active torsions:
REMARK  status: ('A' for Active; 'I' for Inactive)
REMARK    1  A    between atoms: _1  and  _3
REMARK    2  A    between atoms: _3  and  _4
REMARK    3  A    between atoms: _3  and  _6
REMARK    4  A    between atoms: _6  and  _7
REMARK    5  A    between atoms: _10  and  _12
REMARK    6  A    between atoms: _12  and  _13
REMARK    7  A    between atoms: _12  and  _15
REMARK    8  A    between atoms: _15  and  _16
REMARK    9  A    between atoms: _18  and  _20
REMARK   10  A    between atoms: _20  and  _21
REMARK   11  A    between atoms: _20  and  _23
REMARK   12  A    between atoms: _23  and  _24
REMARK   13  A    between atoms: _27  and  _29
REMARK   14  A    between atoms: _29  and  _30
REMARK   15  A    between atoms: _29  and  _32
REMARK   16  A    between atoms: _32  and  _33
REMARK   17  A    between atoms: _33  and  _34
REMARK   18  A    between atoms: _34  and  _35
REMARK   19  A    between atoms: _35  and  _36
REMARK   20  A    between atoms: _41  and  _42
REMARK   21  A    between atoms: _47  and  _49
REMARK   22  A    between atoms: _49  and  _50
REMARK   23  A    between atoms: _49  and  _52
REMARK   24  A    between atoms: _52  and  _53
REMARK   25  A    between atoms: _56  and  _58
REMARK   26  A    between atoms: _58  and  _59
REMARK   27  A    between atoms: _61  and  _63
REMARK   28  A    between atoms: _63  and  _64
REMARK   29  A    between atoms: _63  and  _66
REMARK   30  A    between atoms: _66  and  _67
REMARK   31  A    between atoms: _67  and  _68
REMARK   32  A    between atoms: _73  and  _75
REMARK   33  A    between atoms: _75  and  _76
REMARK   34  A    between atoms: _75  and  _78
REMARK   35  A    between atoms: _81  and  _83
REMARK   36  A    between atoms: _83  and  _84
REMARK   37  A    between atoms: _83  and  _86
REMARK   38  A    between atoms: _86  and  _87
REMARK   39  A    between atoms: _90  and  _92
REMARK   40  A    between atoms: _92  and  _93
REMARK   41  A    between atoms: _92  and  _95
REMARK   42  A    between atoms: _95  and  _96
REMARK   43  A    between atoms: _96  and  _97
REMARK   44  A    between atoms: _100  and  _102
REMARK   45  A    between atoms: _102  and  _103
REMARK   46  A    between atoms: _106  and  _108
REMARK   47  A    between atoms: _108  and  _109
REMARK   48  A    between atoms: _108  and  _111
REMARK   49  A    between atoms: _111  and  _112
REMARK   50  A    between atoms: _115  and  _117
REMARK   51  A    between atoms: _117  and  _118
REMARK   52  A    between atoms: _117  and  _120
REMARK   53  A    between atoms: _123  and  _125
REMARK   54  A    between atoms: _125  and  _126
REMARK   55  A    between atoms: _129  and  _131
REMARK   56  A    between atoms: _131  and  _132
REMARK   57  A    between atoms: _131  and  _134
REMARK   58  A    between atoms: _137  and  _139
REMARK   59  A    between atoms: _139  and  _140
REMARK   60  A    between atoms: _139  and  _142
REMARK   61  A    between atoms: _142  and  _143
REMARK   62  A    between atoms: _143  and  _144
REMARK   63  A    between atoms: _144  and  _145
REMARK   64  A    between atoms: _145  and  _146
REMARK   65  A    between atoms: _150  and  _152
REMARK   66  A    between atoms: _152  and  _153
REMARK   67  A    between atoms: _152  and  _155
REMARK   68  A    between atoms: _155  and  _156
REMARK   69  A    between atoms: _156  and  _157
REMARK   70  A    between atoms: _159  and  _161
REMARK   71  A    between atoms: _161  and  _162
REMARK   72  A    between atoms: _161  and  _164
REMARK   73  A    between atoms: _164  and  _165
REMARK   74  A    between atoms: _168  and  _170
REMARK   75  A    between atoms: _170  and  _171
REMARK   76  A    between atoms: _170  and  _173
REMARK   77  A    between atoms: _173  and  _174
REMARK   78  A    between atoms: _174  and  _175
REMARK   79  A    between atoms: _178  and  _180
REMARK   80  A    between atoms: _180  and  _181
REMARK   81  A    between atoms: _180  and  _183
REMARK   82  A    between atoms: _183  and  _184
REMARK   83  A    between atoms: _187  and  _189
REMARK   84  A    between atoms: _189  and  _190
REMARK   85  A    between atoms: _189  and  _192
REMARK   86  A    between atoms: _192  and  _193
REMARK   87  A    between atoms: _196  and  _198
REMARK   88  A    between atoms: _198  and  _199
REMARK   89  A    between atoms: _198  and  _201
REMARK   90  A    between atoms: _201  and  _202
REMARK   91  A    between atoms: _205  and  _207
REMARK   92  A    between atoms: _207  and  _208
REMARK   93  A    between atoms: _207  and  _210
REMARK   94  A    between atoms: _210  and  _211
REMARK   95  A    between atoms: _214  and  _216
REMARK   96  A    between atoms: _216  and  _217
REMARK   97  A    between atoms: _216  and  _219
REMARK   98  A    between atoms: _222  and  _224
REMARK   99  A    between atoms: _224  and  _225
REMARK  100  A    between atoms: _224  and  _227
REMARK  101  A    between atoms: _230  and  _232
REMARK  102  A    between atoms: _232  and  _233
REMARK  103  A    between atoms: _232  and  _235
REMARK  104  A    between atoms: _235  and  _236
REMARK  105  A    between atoms: _241  and  _243
REMARK  106  A    between atoms: _243  and  _244
REMARK  107  A    between atoms: _243  and  _246
REMARK  108  A    between atoms: _246  and  _247
REMARK  109  A    between atoms: _250  and  _252
REMARK  110  A    between atoms: _252  and  _253
REMARK  111  A    between atoms: _252  and  _255
REMARK  112  A    between atoms: _255  and  _256
REMARK  113  A    between atoms: _259  and  _261
REMARK  114  A    between atoms: _261  and  _262
REMARK  115  A    between atoms: _264  and  _266
REMARK  116  A    between atoms: _266  and  _267
REMARK  117  A    between atoms: _266  and  _269
REMARK  118  A    between atoms: _269  and  _270
REMARK  119  A    between atoms: _270  and  _271
REMARK  120  A    between atoms: _273  and  _275
REMARK  121  A    between atoms: _275  and  _276
REMARK  122  A    between atoms: _275  and  _278
REMARK  123  A    between atoms: _281  and  _283
REMARK  124  A    between atoms: _283  and  _284
REMARK  125  A    between atoms: _283  and  _286
REMARK  126  A    between atoms: _286  and  _287
REMARK  127  A    between atoms: _290  and  _292
REMARK  128  A    between atoms: _292  and  _293
REMARK  129  A    between atoms: _292  and  _295
REMARK  130  A    between atoms: _298  and  _300
REMARK  131  A    between atoms: _300  and  _301
REMARK  132  A    between atoms: _300  and  _303
REMARK  133  A    between atoms: _303  and  _304
REMARK  134  A    between atoms: _304  and  _305
REMARK  135  A    between atoms: _308  and  _310
REMARK  136  A    between atoms: _310  and  _311
REMARK  137  A    between atoms: _310  and  _313
REMARK  138  A    between atoms: _313  and  _314
REMARK  139  A    between atoms: _320  and  _322
REMARK  140  A    between atoms: _322  and  _323
REMARK  141  A    between atoms: _322  and  _325
REMARK  142  A    between atoms: _327  and  _329
REMARK  143  A    between atoms: _329  and  _330
REMARK  144  A    between atoms: _329  and  _332
REMARK  145  A    between atoms: _332  and  _333
REMARK  146  A    between atoms: _333  and  _334
REMARK  147  A    between atoms: _334  and  _335
REMARK  148  A    between atoms: _335  and  _336
REMARK  149  A    between atoms: _340  and  _342
REMARK  150  A    between atoms: _342  and  _343
REMARK  151  A    between atoms: _342  and  _345
REMARK  152  A    between atoms: _345  and  _346
REMARK  153  A    between atoms: _352  and  _354
REMARK  154  A    between atoms: _354  and  _355
REMARK  155  A    between atoms: _357  and  _359
REMARK  156  A    between atoms: _359  and  _360
REMARK  157  A    between atoms: _359  and  _362
REMARK  158  A    between atoms: _362  and  _363
REMARK  159  A    between atoms: _368  and  _370
REMARK  160  A    between atoms: _370  and  _371
REMARK  161  A    between atoms: _370  and  _373
REMARK  162  A    between atoms: _373  and  _374
REMARK  163  A    between atoms: _377  and  _379
REMARK  164  A    between atoms: _379  and  _380
REMARK  165  A    between atoms: _379  and  _382
REMARK  166  A    between atoms: _382  and  _383
REMARK  167  A    between atoms: _388  and  _390
REMARK  168  A    between atoms: _390  and  _391
REMARK  169  A    between atoms: _390  and  _393
REMARK  170  A    between atoms: _393  and  _394
REMARK  171  A    between atoms: _394  and  _395
REMARK  172  A    between atoms: _395  and  _396
REMARK  173  A    between atoms: _405  and  _407
REMARK  174  A    between atoms: _407  and  _408
REMARK  175  A    between atoms: _407  and  _410
REMARK  176  A    between atoms: _410  and  _411
REMARK  177  A    between atoms: _416  and  _418
REMARK  178  A    between atoms: _418  and  _419
REMARK  179  A    between atoms: _418  and  _421
REMARK  180  A    between atoms: _421  and  _422
REMARK  181  A    between atoms: _425  and  _427
REMARK  182  A    between atoms: _427  and  _428
REMARK  183  A    between atoms: _427  and  _430
REMARK  184  A    between atoms: _430  and  _431
REMARK  185  A    between atoms: _434  and  _436
REMARK  186  A    between atoms: _436  and  _437
REMARK  187  A    between atoms: _436  and  _439
REMARK  188  A    between atoms: _439  and  _440
REMARK  189  A    between atoms: _443  and  _445
REMARK  190  A    between atoms: _445  and  _446
REMARK  191  A    between atoms: _445  and  _448
REMARK  192  A    between atoms: _448  and  _449
REMARK  193  A    between atoms: _451  and  _453
REMARK  194  A    between atoms: _453  and  _454
REMARK  195  A    between atoms: _453  and  _456
REMARK  196  A    between atoms: _456  and  _457
REMARK  197  A    between atoms: _457  and  _458
REMARK  198  A    between atoms: _458  and  _459
REMARK  199  A    between atoms: _459  and  _460
REMARK  200  A    between atoms: _464  and  _466
REMARK  201  A    between atoms: _466  and  _467
REMARK  202  A    between atoms: _466  and  _469
REMARK  203  A    between atoms: _469  and  _470
REMARK  204  A    between atoms: _473  and  _475
REMARK  205  A    between atoms: _475  and  _476
REMARK  206  A    between atoms: _475  and  _478
REMARK  207  A    between atoms: _480  and  _482
REMARK  208  A    between atoms: _482  and  _483
REMARK  209  A    between atoms: _482  and  _485
REMARK  210  A    between atoms: _485  and  _486
REMARK  211  A    between atoms: _489  and  _491
REMARK  212  A    between atoms: _491  and  _492
REMARK  213  A    between atoms: _491  and  _494
REMARK  214  A    between atoms: _494  and  _495
REMARK  215  A    between atoms: _501  and  _503
REMARK  216  A    between atoms: _503  and  _504
REMARK  217  A    between atoms: _506  and  _508
REMARK  218  A    between atoms: _508  and  _509
REMARK  219  A    between atoms: _508  and  _511
REMARK  220  A    between atoms: _511  and  _512
REMARK  221  A    between atoms: _515  and  _517
REMARK  222  A    between atoms: _517  and  _518
REMARK  223  A    between atoms: _521  and  _523
REMARK  224  A    between atoms: _523  and  _524
REMARK  225  A    between atoms: _523  and  _526
REMARK  226  A    between atoms: _526  and  _527
REMARK  227  A    between atoms: _527  and  _528
REMARK  228  A    between atoms: _528  and  _529
REMARK                            x       y       z     vdW  Elec       q    Type
REMARK                         _______ _______ _______ _____ _____    ______ ____
ROOT
ATOM      1  C   LYS A   1     -18.132  -0.802 -22.779  0.00  0.00    +0.241 C 
ATOM      2  O   LYS A   1     -18.955  -0.264 -22.039  0.00  0.00    -0.273 OA
ATOM      3  N   PRO A   2     -17.534  -1.958 -22.449  0.00  0.00    -0.272 N 
ATOM      4  CA  PRO A   2     -17.776  -2.619 -21.160  0.00  0.00    +0.152 C 
ATOM      5  CB  PRO A   2     -17.030  -3.951 -21.280  0.00  0.00    +0.031 C 
ATOM      6  CG  PRO A   2     -16.664  -4.078 -22.745  0.00  0.00    +0.024 C 
ATOM      7  CD  PRO A   2     -16.532  -2.678 -23.251  0.00  0.00    +0.094 C 
ENDROOT
BRANCH   4   8
ATOM      8  C   PRO A   2     -17.240  -1.788 -19.994  0.00  0.00    +0.241 C 
ATOM      9  N   LEU A   3     -18.016  -1.711 -18.920  0.00  0.00    -0.297 N 
ATOM     10  H   LEU A   3     -18.976  -2.109 -18.960  0.00  0.00    +0.150 HD
ATOM     11  O   PRO A   2     -16.148  -1.229 -20.073  0.00  0.00    -0.273 OA
BRANCH   9  12
ATOM     12  CA  LEU A   3     -17.561  -1.085 -17.688  0.00  0.00    +0.149 C 
BRANCH  12  13
ATOM     13  C   LEU A   3     -17.223  -2.160 -16.656  0.00  0.00    +0.241 C 
ATOM     14  O   LEU A   3     -16.456  -1.923 -15.729  0.00  0.00    -0.273 OA
ATOM     15  N   GLY A   4     -17.802  -3.343 -16.824  0.00  0.00    -0.296 N 
ATOM     16  H   GLY A   4     -18.517  -3.464 -17.570  0.00  0.00    +0.150 HD
BRANCH  15  17
ATOM     17  CA  GLY A   4     -17.450  -4.469 -15.980  0.00  0.00    +0.163 C 
BRANCH  17  18
ATOM     18  C   GLY A   4     -18.027  -5.758 -16.534  0.00  0.00    +0.229 C 
ATOM     19  O   GLY A   4     -19.143  -5.766 -17.065  0.00  0.00    -0.286 OA
ENDBRANCH  17  18
ENDBRANCH  15  17
ENDBRANCH  12  13
BRANCH  12  20
ATOM     20  CB  LEU A   3     -18.644  -0.147 -17.146  0.00  0.00    +0.029 C 
BRANCH  20  21
ATOM     21  CG  LEU A   3     -19.019   0.993 -18.100  0.00  0.00    +0.002 C 
ATOM     22  CD2 LEU A   3     -20.211   1.765 -17.551  0.00  0.00    +0.000 C 
ATOM     23  CD1 LEU A   3     -17.803   1.911 -18.298  0.00  0.00    +0.000 C 
ENDBRANCH  20  21
ENDBRANCH  12  20
ENDBRANCH   9  12
ENDBRANCH   4   8
BRANCH   1  24
ATOM     24  CA  LYS A   1     -17.735  -0.176 -24.120  0.00  0.00    +0.145 C 
BRANCH  24  25
ATOM     25  N   LYS A   1     -18.763   0.686 -24.697  0.00  0.00    -0.238 NA
ATOM     26  H   LYS A   1     -18.678   1.717 -24.589  0.00  0.00    +0.142 HD
ENDBRANCH  24  25
BRANCH  24  27
ATOM     27  CB  LYS A   1     -16.439   0.618 -23.947  0.00  0.00    +0.026 C 
BRANCH  27  28
ATOM     28  CG  LYS A   1     -16.547   1.788 -22.976  0.00  0.00    -0.000 C 
BRANCH  28  29
ATOM     29  CD  LYS A   1     -15.167   2.378 -22.685  0.00  0.00    -0.024 C 
BRANCH  29  30
ATOM     30  CE  LYS A   1     -15.258   3.712 -21.956  0.00  0.00    -0.086 C 
BRANCH  30  31
ATOM     31  NZ  LYS A   1     -15.867   4.774 -22.812  0.00  0.00    +0.380 N 
ATOM     32  HZ1 LYS A   1     -15.910   5.665 -22.278  0.00  0.00    -0.089 HD
ATOM     33  HZ2 LYS A   1     -16.828   4.487 -23.088  0.00  0.00    -0.089 HD
ATOM     34  HZ3 LYS A   1     -15.285   4.907 -23.664  0.00  0.00    -0.089 HD
ENDBRANCH  30  31
ENDBRANCH  29  30
ENDBRANCH  28  29
ENDBRANCH  27  28
ENDBRANCH  24  27
ENDBRANCH   1  24
TORSDOF 14
REMARK  Name = ../refined-set-2016/4agc/4agc_pocket.pdb
REMARK  228 active torsions:
REMARK  status: ('A' for Active; 'I' for Inactive)
REMARK    1  A    between atoms: _1  and  _3
REMARK    2  A    between atoms: _3  and  _4
REMARK    3  A    between atoms: _3  and  _6
REMARK    4  A    between atoms: _6  and  _7
REMARK    5  A    between atoms: _10  and  _12
REMARK    6  A    between atoms: _12  and  _13
REMARK    7  A    between atoms: _12  and  _15
REMARK    8  A    between atoms: _15  and  _16
REMARK    9  A    between atoms: _18  and  _20
REMARK   10  A    between atoms: _20  and  _21
REMARK   11  A    between atoms: _20  and  _23
REMARK   12  A    between atoms: _23  and  _24
REMARK   13  A    between atoms: _27  and  _29
REMARK   14  A    between atoms: _29  and  _30
REMARK   15  A    between atoms: _29  and  _32
REMARK   16  A    between atoms: _32  and  _33
REMARK   17  A    between atoms: _33  and  _34
REMARK   18  A    between atoms: _34  and  _35
REMARK   19  A    between atoms: _35  and  _36
REMARK   20  A    between atoms: _41  and  _42
REMARK   21  A    between atoms: _47  and  _49
REMARK   22  A    between atoms: _49  and  _50
REMARK   23  A    between atoms: _49  and  _52
REMARK   24  A    between atoms: _52  and  _53
REMARK   25  A    between atoms: _56  and  _58
REMARK   26  A    between atoms: _58  and  _59
REMARK   27  A    between atoms: _61  and  _63
REMARK   28  A    between atoms: _63  and  _64
REMARK   29  A    between atoms: _63  and  _66
REMARK   30  A    between atoms: _66  and  _67
REMARK   31  A    between atoms: _67  and  _68
REMARK   32  A    between atoms: _73  and  _75
REMARK   33  A    between atoms: _75  and  _76
REMARK   34  A    between atoms: _75  and  _78
REMARK   35  A    between atoms: _81  and  _83
REMARK   36  A    between atoms: _83  and  _84
REMARK   37  A    between atoms: _83  and  _86
REMARK   38  A    between atoms: _86  and  _87
REMARK   39  A    between atoms: _90  and  _92
REMARK   40  A    between atoms: _92  and  _93
REMARK   41  A    between atoms: _92  and  _95
REMARK   42  A    between atoms: _95  and  _96
REMARK   43  A    between atoms: _96  and  _97
REMARK   44  A    between atoms: _100  and  _102
REMARK   45  A    between atoms: _102  and  _103
REMARK   46  A    between atoms: _106  and  _108
REMARK   47  A    between atoms: _108  and  _109
REMARK   48  A    between atoms: _108  and  _111
REMARK   49  A    between atoms: _111  and  _112
REMARK   50  A    between atoms: _115  and  _117
REMARK   51  A    between atoms: _117  and  _118
REMARK   52  A    between atoms: _117  and  _120
REMARK   53  A    between atoms: _123  and  _125
REMARK   54  A    between atoms: _125  and  _126
REMARK   55  A    between atoms: _129  and  _131
REMARK   56  A    between atoms: _131  and  _132
REMARK   57  A    between atoms: _131  and  _134
REMARK   58  A    between atoms: _137  and  _139
REMARK   59  A    between atoms: _139  and  _140
REMARK   60  A    between atoms: _139  and  _142
REMARK   61  A    between atoms: _142  and  _143
REMARK   62  A    between atoms: _143  and  _144
REMARK   63  A    between atoms: _144  and  _145
REMARK   64  A    between atoms: _145  and  _146
REMARK   65  A    between atoms: _150  and  _152
REMARK   66  A    between atoms: _152  and  _153
REMARK   67  A    between atoms: _152  and  _155
REMARK   68  A    between atoms: _155  and  _156
REMARK   69  A    between atoms: _156  and  _157
REMARK   70  A    between atoms: _159  and  _161
REMARK   71  A    between atoms: _161  and  _162
REMARK   72  A    between atoms: _161  and  _164
REMARK   73  A    between atoms: _164  and  _165
REMARK   74  A    between atoms: _168  and  _170
REMARK   75  A    between atoms: _170  and  _171
REMARK   76  A    between atoms: _170  and  _173
REMARK   77  A    between atoms: _173  and  _174
REMARK   78  A    between atoms: _174  and  _175
REMARK   79  A    between atoms: _178  and  _180
REMARK   80  A    between atoms: _180  and  _181
REMARK   81  A    between atoms: _180  and  _183
REMARK   82  A    between atoms: _183  and  _184
REMARK   83  A    between atoms: _187  and  _189
REMARK   84  A    between atoms: _189  and  _190
REMARK   85  A    between atoms: _189  and  _192
REMARK   86  A    between atoms: _192  and  _193
REMARK   87  A    between atoms: _196  and  _198
REMARK   88  A    between atoms: _198  and  _199
REMARK   89  A    between atoms: _198  and  _201
REMARK   90  A    between atoms: _201  and  _202
REMARK   91  A    between atoms: _205  and  _207
REMARK   92  A    between atoms: _207  and  _208
REMARK   93  A    between atoms: _207  and  _210
REMARK   94  A    between atoms: _210  and  _211
REMARK   95  A    between atoms: _214  and  _216
REMARK   96  A    between atoms: _216  and  _217
REMARK   97  A    between atoms: _216  and  _219
REMARK   98  A    between atoms: _222  and  _224
REMARK   99  A    between atoms: _224  and  _225
REMARK  100  A    between atoms: _224  and  _227
REMARK  101  A    between atoms: _230  and  _232
REMARK  102  A    between atoms: _232  and  _233
REMARK  103  A    between atoms: _232  and  _235
REMARK  104  A    between atoms: _235  and  _236
REMARK  105  A    between atoms: _241  and  _243
REMARK  106  A    between atoms: _243  and  _244
REMARK  107  A    between atoms: _243  and  _246
REMARK  108  A    between atoms: _246  and  _247
REMARK  109  A    between atoms: _250  and  _252
REMARK  110  A    between atoms: _252  and  _253
REMARK  111  A    between atoms: _252  and  _255
REMARK  112  A    between atoms: _255  and  _256
REMARK  113  A    between atoms: _259  and  _261
REMARK  114  A    between atoms: _261  and  _262
REMARK  115  A    between atoms: _264  and  _266
REMARK  116  A    between atoms: _266  and  _267
REMARK  117  A    between atoms: _266  and  _269
REMARK  118  A    between atoms: _269  and  _270
REMARK  119  A    between atoms: _270  and  _271
REMARK  120  A    between atoms: _273  and  _275
REMARK  121  A    between atoms: _275  and  _276
REMARK  122  A    between atoms: _275  and  _278
REMARK  123  A    between atoms: _281  and  _283
REMARK  124  A    between atoms: _283  and  _284
REMARK  125  A    between atoms: _283  and  _286
REMARK  126  A    between atoms: _286  and  _287
REMARK  127  A    between atoms: _290  and  _292
REMARK  128  A    between atoms: _292  and  _293
REMARK  129  A    between atoms: _292  and  _295
REMARK  130  A    between atoms: _298  and  _300
REMARK  131  A    between atoms: _300  and  _301
REMARK  132  A    between atoms: _300  and  _303
REMARK  133  A    between atoms: _303  and  _304
REMARK  134  A    between atoms: _304  and  _305
REMARK  135  A    between atoms: _308  and  _310
REMARK  136  A    between atoms: _310  and  _311
REMARK  137  A    between atoms: _310  and  _313
REMARK  138  A    between atoms: _313  and  _314
REMARK  139  A    between atoms: _320  and  _322
REMARK  140  A    between atoms: _322  and  _323
REMARK  141  A    between atoms: _322  and  _325
REMARK  142  A    between atoms: _327  and  _329
REMARK  143  A    between atoms: _329  and  _330
REMARK  144  A    between atoms: _329  and  _332
REMARK  145  A    between atoms: _332  and  _333
REMARK  146  A    between atoms: _333  and  _334
REMARK  147  A    between atoms: _334  and  _335
REMARK  148  A    between atoms: _335  and  _336
REMARK  149  A    between atoms: _340  and  _342
REMARK  150  A    between atoms: _342  and  _343
REMARK  151  A    between atoms: _342  and  _345
REMARK  152  A    between atoms: _345  and  _346
REMARK  153  A    between atoms: _352  and  _354
REMARK  154  A    between atoms: _354  and  _355
REMARK  155  A    between atoms: _357  and  _359
REMARK  156  A    between atoms: _359  and  _360
REMARK  157  A    between atoms: _359  and  _362
REMARK  158  A    between atoms: _362  and  _363
REMARK  159  A    between atoms: _368  and  _370
REMARK  160  A    between atoms: _370  and  _371
REMARK  161  A    between atoms: _370  and  _373
REMARK  162  A    between atoms: _373  and  _374
REMARK  163  A    between atoms: _377  and  _379
REMARK  164  A    between atoms: _379  and  _380
REMARK  165  A    between atoms: _379  and  _382
REMARK  166  A    between atoms: _382  and  _383
REMARK  167  A    between atoms: _388  and  _390
REMARK  168  A    between atoms: _390  and  _391
REMARK  169  A    between atoms: _390  and  _393
REMARK  170  A    between atoms: _393  and  _394
REMARK  171  A    between atoms: _394  and  _395
REMARK  172  A    between atoms: _395  and  _396
REMARK  173  A    between atoms: _405  and  _407
REMARK  174  A    between atoms: _407  and  _408
REMARK  175  A    between atoms: _407  and  _410
REMARK  176  A    between atoms: _410  and  _411
REMARK  177  A    between atoms: _416  and  _418
REMARK  178  A    between atoms: _418  and  _419
REMARK  179  A    between atoms: _418  and  _421
REMARK  180  A    between atoms: _421  and  _422
REMARK  181  A    between atoms: _425  and  _427
REMARK  182  A    between atoms: _427  and  _428
REMARK  183  A    between atoms: _427  and  _430
REMARK  184  A    between atoms: _430  and  _431
REMARK  185  A    between atoms: _434  and  _436
REMARK  186  A    between atoms: _436  and  _437
REMARK  187  A    between atoms: _436  and  _439
REMARK  188  A    between atoms: _439  and  _440
REMARK  189  A    between atoms: _443  and  _445
REMARK  190  A    between atoms: _445  and  _446
REMARK  191  A    between atoms: _445  and  _448
REMARK  192  A    between atoms: _448  and  _449
REMARK  193  A    between atoms: _451  and  _453
REMARK  194  A    between atoms: _453  and  _454
REMARK  195  A    between atoms: _453  and  _456
REMARK  196  A    between atoms: _456  and  _457
REMARK  197  A    between atoms: _457  and  _458
REMARK  198  A    between atoms: _458  and  _459
REMARK  199  A    between atoms: _459  and  _460
REMARK  200  A    between atoms: _464  and  _466
REMARK  201  A    between atoms: _466  and  _467
REMARK  202  A    between atoms: _466  and  _469
REMARK  203  A    between atoms: _469  and  _470
REMARK  204  A    between atoms: _473  and  _475
REMARK  205  A    between atoms: _475  and  _476
REMARK  206  A    between atoms: _475  and  _478
REMARK  207  A    between atoms: _480  and  _482
REMARK  208  A    between atoms: _482  and  _483
REMARK  209  A    between atoms: _482  and  _485
REMARK  210  A    between atoms: _485  and  _486
REMARK  211  A    between atoms: _489  and  _491
REMARK  212  A    between atoms: _491  and  _492
REMARK  213  A    between atoms: _491  and  _494
REMARK  214  A    between atoms: _494  and  _495
REMARK  215  A    between atoms: _501  and  _503
REMARK  216  A    between atoms: _503  and  _504
REMARK  217  A    between atoms: _506  and  _508
REMARK  218  A    between atoms: _508  and  _509
REMARK  219  A    between atoms: _508  and  _511
REMARK  220  A    between atoms: _511  and  _512
REMARK  221  A    between atoms: _515  and  _517
REMARK  222  A    between atoms: _517  and  _518
REMARK  223  A    between atoms: _521  and  _523
REMARK  224  A    between atoms: _523  and  _524
REMARK  225  A    between atoms: _523  and  _526
REMARK  226  A    between atoms: _526  and  _527
REMARK  227  A    between atoms: _527  and  _528
REMARK  228  A    between atoms: _528  and  _529
REMARK                            x       y       z     vdW  Elec       q    Type
REMARK                         _______ _______ _______ _____ _____    ______ ____
ROOT
ATOM      1  CA  ILE A   3     -21.740  -1.524 -20.516  0.00  0.00    +0.149 C 
ENDROOT
BRANCH   1   4
ATOM      2  C   VAL A   2     -21.585  -2.834 -18.518  0.00  0.00    +0.241 C 
ATOM      3  O   VAL A   2     -20.354  -2.836 -18.594  0.00  0.00    -0.273 OA
ATOM      4  N   ILE A   3     -22.355  -2.246 -19.422  0.00  0.00    -0.297 N 
ATOM      5  H   ILE A   3     -23.391  -2.303 -19.346  0.00  0.00    +0.150 HD
BRANCH   2   6
ATOM      6  CA  VAL A   2     -22.295  -3.551 -17.381  0.00  0.00    +0.148 C 
BRANCH   6   8
ATOM      7  C   GLN A   1     -22.517  -5.956 -17.671  0.00  0.00    +0.238 C 
ATOM      8  N   VAL A   2     -21.772  -4.913 -17.326  0.00  0.00    -0.297 N 
ATOM      9  H   VAL A   2     -20.794  -5.070 -17.009  0.00  0.00    +0.150 HD
ATOM     10  O   GLN A   1     -23.737  -5.894 -17.818  0.00  0.00    -0.274 OA
BRANCH   7  11
ATOM     11  CA  GLN A   1     -21.775  -7.265 -17.862  0.00  0.00    +0.145 C 
BRANCH  11  12
ATOM     12  N   GLN A   1     -22.663  -8.392 -17.634  0.00  0.00    -0.238 NA
ATOM     13  H   GLN A   1     -23.691  -8.254 -17.714  0.00  0.00    +0.142 HD
ENDBRANCH  11  12
BRANCH  11  14
ATOM     14  CB  GLN A   1     -21.193  -7.333 -19.280  0.00  0.00    +0.036 C 
BRANCH  14  15
ATOM     15  CG  GLN A   1     -22.242  -7.486 -20.383  0.00  0.00    +0.087 C 
BRANCH  15  16
ATOM     16  CD  GLN A   1     -21.626  -7.811 -21.735  0.00  0.00    +0.219 C 
ATOM     17  OE1 GLN A   1     -20.485  -7.443 -22.015  0.00  0.00    -0.275 OA
ATOM     18  NE2 GLN A   1     -22.379  -8.504 -22.578  0.00  0.00    -0.329 N 
ATOM     19 HE21 GLN A   1     -23.338  -8.795 -22.300  0.00  0.00    +0.145 HD
ATOM     20 HE22 GLN A   1     -22.011  -8.757 -23.517  0.00  0.00    +0.145 HD
ENDBRANCH  15  16
ENDBRANCH  14  15
ENDBRANCH  11  14
ENDBRANCH   7  11
ENDBRANCH   6   8
BRANCH   6  21
ATOM     21  CB  VAL A   2     -22.052  -2.796 -16.053  0.00  0.00    +0.027 C 
ATOM     22  CG2 VAL A   2     -22.772  -3.514 -14.922  0.00  0.00    +0.002 C 
ATOM     23  CG1 VAL A   2     -22.551  -1.348 -16.159  0.00  0.00    +0.002 C 
ENDBRANCH   6  21
ENDBRANCH   2   6
ENDBRANCH   1   4
BRANCH   1  24
ATOM     24  C   ILE A   3     -22.191  -0.068 -20.540  0.00  0.00    +0.241 C 
ATOM     25  O   ILE A   3     -23.339   0.255 -20.213  0.00  0.00    -0.273 OA
ATOM     26  N   GLU A   4     -21.266   0.806 -20.915  0.00  0.00    -0.297 N 
ATOM     27  H   GLU A   4     -20.295   0.469 -21.075  0.00  0.00    +0.150 HD
BRANCH  26  28
ATOM     28  CA  GLU A   4     -21.557   2.219 -21.111  0.00  0.00    +0.149 C 
BRANCH  28  29
ATOM     29  C   GLU A   4     -22.426   2.390 -22.358  0.00  0.00    +0.241 C 
ATOM     30  N   ALA A   5     -23.349   3.346 -22.325  0.00  0.00    -0.298 N 
ATOM     31  H   ALA A   5     -23.449   3.937 -21.475  0.00  0.00    +0.150 HD
ATOM     32  O   GLU A   4     -22.266   1.660 -23.337  0.00  0.00    -0.273 OA
BRANCH  30  33
ATOM     33  CA  ALA A   5     -24.224   3.574 -23.472  0.00  0.00    +0.137 C 
ATOM     34  CB  ALA A   5     -25.377   2.560 -23.459  0.00  0.00    +0.030 C 
BRANCH  33  35
ATOM     35  C   ALA A   5     -24.782   4.992 -23.496  0.00  0.00    +0.227 C 
ATOM     36  O   ALA A   5     -24.811   5.678 -22.471  0.00  0.00    -0.286 OA
ENDBRANCH  33  35
ENDBRANCH  30  33
ENDBRANCH  28  29
BRANCH  28  37
ATOM     37  CB  GLU A   4     -20.243   2.981 -21.273  0.00  0.00    +0.041 C 
BRANCH  37  38
ATOM     38  CG  GLU A   4     -20.364   4.478 -21.146  0.00  0.00    +0.116 C 
BRANCH  38  39
ATOM     39  CD  GLU A   4     -19.026   5.176 -21.308  0.00  0.00    +0.365 C 
ATOM     40  OE2 GLU A   4     -17.996   4.601 -20.896  0.00  0.00    -0.246 OA
ATOM     41  OE1 GLU A   4     -19.003   6.298 -21.849  0.00  0.00    -0.246 OA
ENDBRANCH  38  39
ENDBRANCH  37  38
ENDBRANCH  28  37
ENDBRANCH  26  28
ENDBRANCH   1  24
BRANCH   1  42
ATOM     42  CB  ILE A   3     -22.054  -2.182 -21.883  0.00  0.00    +0.027 C 
ATOM     43  CG2 ILE A   3     -21.939  -3.706 -21.782  0.00  0.00    +0.002 C 
BRANCH  42  44
ATOM     44  CG1 ILE A   3     -23.450  -1.803 -22.337  0.00  0.00    +0.002 C 
ATOM     45  CD1 ILE A   3     -23.445  -0.959 -23.587  0.00  0.00    +0.000 C 
ENDBRANCH  42  44
ENDBRANCH   1  42
TORSDOF 19
REMARK  Name = ../refined-set-2016/4agc/4agc_pocket.pdb
REMARK  228 active torsions:
REMARK  status: ('A' for Active; 'I' for Inactive)
REMARK    1  A    between atoms: _1  and  _3
REMARK    2  A    between atoms: _3  and  _4
REMARK    3  A    between atoms: _3  and  _6
REMARK    4  A    between atoms: _6  and  _7
REMARK    5  A    between atoms: _10  and  _12
REMARK    6  A    between atoms: _12  and  _13
REMARK    7  A    between atoms: _12  and  _15
REMARK    8  A    between atoms: _15  and  _16
REMARK    9  A    between atoms: _18  and  _20
REMARK   10  A    between atoms: _20  and  _21
REMARK   11  A    between atoms: _20  and  _23
REMARK   12  A    between atoms: _23  and  _24
REMARK   13  A    between atoms: _27  and  _29
REMARK   14  A    between atoms: _29  and  _30
REMARK   15  A    between atoms: _29  and  _32
REMARK   16  A    between atoms: _32  and  _33
REMARK   17  A    between atoms: _33  and  _34
REMARK   18  A    between atoms: _34  and  _35
REMARK   19  A    between atoms: _35  and  _36
REMARK   20  A    between atoms: _41  and  _42
REMARK   21  A    between atoms: _47  and  _49
REMARK   22  A    between atoms: _49  and  _50
REMARK   23  A    between atoms: _49  and  _52
REMARK   24  A    between atoms: _52  and  _53
REMARK   25  A    between atoms: _56  and  _58
REMARK   26  A    between atoms: _58  and  _59
REMARK   27  A    between atoms: _61  and  _63
REMARK   28  A    between atoms: _63  and  _64
REMARK   29  A    between atoms: _63  and  _66
REMARK   30  A    between atoms: _66  and  _67
REMARK   31  A    between atoms: _67  and  _68
REMARK   32  A    between atoms: _73  and  _75
REMARK   33  A    between atoms: _75  and  _76
REMARK   34  A    between atoms: _75  and  _78
REMARK   35  A    between atoms: _81  and  _83
REMARK   36  A    between atoms: _83  and  _84
REMARK   37  A    between atoms: _83  and  _86
REMARK   38  A    between atoms: _86  and  _87
REMARK   39  A    between atoms: _90  and  _92
REMARK   40  A    between atoms: _92  and  _93
REMARK   41  A    between atoms: _92  and  _95
REMARK   42  A    between atoms: _95  and  _96
REMARK   43  A    between atoms: _96  and  _97
REMARK   44  A    between atoms: _100  and  _102
REMARK   45  A    between atoms: _102  and  _103
REMARK   46  A    between atoms: _106  and  _108
REMARK   47  A    between atoms: _108  and  _109
REMARK   48  A    between atoms: _108  and  _111
REMARK   49  A    between atoms: _111  and  _112
REMARK   50  A    between atoms: _115  and  _117
REMARK   51  A    between atoms: _117  and  _118
REMARK   52  A    between atoms: _117  and  _120
REMARK   53  A    between atoms: _123  and  _125
REMARK   54  A    between atoms: _125  and  _126
REMARK   55  A    between atoms: _129  and  _131
REMARK   56  A    between atoms: _131  and  _132
REMARK   57  A    between atoms: _131  and  _134
REMARK   58  A    between atoms: _137  and  _139
REMARK   59  A    between atoms: _139  and  _140
REMARK   60  A    between atoms: _139  and  _142
REMARK   61  A    between atoms: _142  and  _143
REMARK   62  A    between atoms: _143  and  _144
REMARK   63  A    between atoms: _144  and  _145
REMARK   64  A    between atoms: _145  and  _146
REMARK   65  A    between atoms: _150  and  _152
REMARK   66  A    between atoms: _152  and  _153
REMARK   67  A    between atoms: _152  and  _155
REMARK   68  A    between atoms: _155  and  _156
REMARK   69  A    between atoms: _156  and  _157
REMARK   70  A    between atoms: _159  and  _161
REMARK   71  A    between atoms: _161  and  _162
REMARK   72  A    between atoms: _161  and  _164
REMARK   73  A    between atoms: _164  and  _165
REMARK   74  A    between atoms: _168  and  _170
REMARK   75  A    between atoms: _170  and  _171
REMARK   76  A    between atoms: _170  and  _173
REMARK   77  A    between atoms: _173  and  _174
REMARK   78  A    between atoms: _174  and  _175
REMARK   79  A    between atoms: _178  and  _180
REMARK   80  A    between atoms: _180  and  _181
REMARK   81  A    between atoms: _180  and  _183
REMARK   82  A    between atoms: _183  and  _184
REMARK   83  A    between atoms: _187  and  _189
REMARK   84  A    between atoms: _189  and  _190
REMARK   85  A    between atoms: _189  and  _192
REMARK   86  A    between atoms: _192  and  _193
REMARK   87  A    between atoms: _196  and  _198
REMARK   88  A    between atoms: _198  and  _199
REMARK   89  A    between atoms: _198  and  _201
REMARK   90  A    between atoms: _201  and  _202
REMARK   91  A    between atoms: _205  and  _207
REMARK   92  A    between atoms: _207  and  _208
REMARK   93  A    between atoms: _207  and  _210
REMARK   94  A    between atoms: _210  and  _211
REMARK   95  A    between atoms: _214  and  _216
REMARK   96  A    between atoms: _216  and  _217
REMARK   97  A    between atoms: _216  and  _219
REMARK   98  A    between atoms: _222  and  _224
REMARK   99  A    between atoms: _224  and  _225
REMARK  100  A    between atoms: _224  and  _227
REMARK  101  A    between atoms: _230  and  _232
REMARK  102  A    between atoms: _232  and  _233
REMARK  103  A    between atoms: _232  and  _235
REMARK  104  A    between atoms: _235  and  _236
REMARK  105  A    between atoms: _241  and  _243
REMARK  106  A    between atoms: _243  and  _244
REMARK  107  A    between atoms: _243  and  _246
REMARK  108  A    between atoms: _246  and  _247
REMARK  109  A    between atoms: _250  and  _252
REMARK  110  A    between atoms: _252  and  _253
REMARK  111  A    between atoms: _252  and  _255
REMARK  112  A    between atoms: _255  and  _256
REMARK  113  A    between atoms: _259  and  _261
REMARK  114  A    between atoms: _261  and  _262
REMARK  115  A    between atoms: _264  and  _266
REMARK  116  A    between atoms: _266  and  _267
REMARK  117  A    between atoms: _266  and  _269
REMARK  118  A    between atoms: _269  and  _270
REMARK  119  A    between atoms: _270  and  _271
REMARK  120  A    between atoms: _273  and  _275
REMARK  121  A    between atoms: _275  and  _276
REMARK  122  A    between atoms: _275  and  _278
REMARK  123  A    between atoms: _281  and  _283
REMARK  124  A    between atoms: _283  and  _284
REMARK  125  A    between atoms: _283  and  _286
REMARK  126  A    between atoms: _286  and  _287
REMARK  127  A    between atoms: _290  and  _292
REMARK  128  A    between atoms: _292  and  _293
REMARK  129  A    between atoms: _292  and  _295
REMARK  130  A    between atoms: _298  and  _300
REMARK  131  A    between atoms: _300  and  _301
REMARK  132  A    between atoms: _300  and  _303
REMARK  133  A    between atoms: _303  and  _304
REMARK  134  A    between atoms: _304  and  _305
REMARK  135  A    between atoms: _308  and  _310
REMARK  136  A    between atoms: _310  and  _311
REMARK  137  A    between atoms: _310  and  _313
REMARK  138  A    between atoms: _313  and  _314
REMARK  139  A    between atoms: _320  and  _322
REMARK  140  A    between atoms: _322  and  _323
REMARK  141  A    between atoms: _322  and  _325
REMARK  142  A    between atoms: _327  and  _329
REMARK  143  A    between atoms: _329  and  _330
REMARK  144  A    between atoms: _329  and  _332
REMARK  145  A    between atoms: _332  and  _333
REMARK  146  A    between atoms: _333  and  _334
REMARK  147  A    between atoms: _334  and  _335
REMARK  148  A    between atoms: _335  and  _336
REMARK  149  A    between atoms: _340  and  _342
REMARK  150  A    between atoms: _342  and  _343
REMARK  151  A    between atoms: _342  and  _345
REMARK  152  A    between atoms: _345  and  _346
REMARK  153  A    between atoms: _352  and  _354
REMARK  154  A    between atoms: _354  and  _355
REMARK  155  A    between atoms: _357  and  _359
REMARK  156  A    between atoms: _359  and  _360
REMARK  157  A    between atoms: _359  and  _362
REMARK  158  A    between atoms: _362  and  _363
REMARK  159  A    between atoms: _368  and  _370
REMARK  160  A    between atoms: _370  and  _371
REMARK  161  A    between atoms: _370  and  _373
REMARK  162  A    between atoms: _373  and  _374
REMARK  163  A    between atoms: _377  and  _379
REMARK  164  A    between atoms: _379  and  _380
REMARK  165  A    between atoms: _379  and  _382
REMARK  166  A    between atoms: _382  and  _383
REMARK  167  A    between atoms: _388  and  _390
REMARK  168  A    between atoms: _390  and  _391
REMARK  169  A    between atoms: _390  and  _393
REMARK  170  A    between atoms: _393  and  _394
REMARK  171  A    between atoms: _394  and  _395
REMARK  172  A    between atoms: _395  and  _396
REMARK  173  A    between atoms: _405  and  _407
REMARK  174  A    between atoms: _407  and  _408
REMARK  175  A    between atoms: _407  and  _410
REMARK  176  A    between atoms: _410  and  _411
REMARK  177  A    between atoms: _416  and  _418
REMARK  178  A    between atoms: _418  and  _419
REMARK  179  A    between atoms: _418  and  _421
REMARK  180  A    between atoms: _421  and  _422
REMARK  181  A    between atoms: _425  and  _427
REMARK  182  A    between atoms: _427  and  _428
REMARK  183  A    between atoms: _427  and  _430
REMARK  184  A    between atoms: _430  and  _431
REMARK  185  A    between atoms: _434  and  _436
REMARK  186  A    between atoms: _436  and  _437
REMARK  187  A    between atoms: _436  and  _439
REMARK  188  A    between atoms: _439  and  _440
REMARK  189  A    between atoms: _443  and  _445
REMARK  190  A    between atoms: _445  and  _446
REMARK  191  A    between atoms: _445  and  _448
REMARK  192  A    between atoms: _448  and  _449
REMARK  193  A    between atoms: _451  and  _453
REMARK  194  A    between atoms: _453  and  _454
REMARK  195  A    between atoms: _453  and  _456
REMARK  196  A    between atoms: _456  and  _457
REMARK  197  A    between atoms: _457  and  _458
REMARK  198  A    between atoms: _458  and  _459
REMARK  199  A    between atoms: _459  and  _460
REMARK  200  A    between atoms: _464  and  _466
REMARK  201  A    between atoms: _466  and  _467
REMARK  202  A    between atoms: _466  and  _469
REMARK  203  A    between atoms: _469  and  _470
REMARK  204  A    between atoms: _473  and  _475
REMARK  205  A    between atoms: _475  and  _476
REMARK  206  A    between atoms: _475  and  _478
REMARK  207  A    between atoms: _480  and  _482
REMARK  208  A    between atoms: _482  and  _483
REMARK  209  A    between atoms: _482  and  _485
REMARK  210  A    between atoms: _485  and  _486
REMARK  211  A    between atoms: _489  and  _491
REMARK  212  A    between atoms: _491  and  _492
REMARK  213  A    between atoms: _491  and  _494
REMARK  214  A    between atoms: _494  and  _495
REMARK  215  A    between atoms: _501  and  _503
REMARK  216  A    between atoms: _503  and  _504
REMARK  217  A    between atoms: _506  and  _508
REMARK  218  A    between atoms: _508  and  _509
REMARK  219  A    between atoms: _508  and  _511
REMARK  220  A    between atoms: _511  and  _512
REMARK  221  A    between atoms: _515  and  _517
REMARK  222  A    between atoms: _517  and  _518
REMARK  223  A    between atoms: _521  and  _523
REMARK  224  A    between atoms: _523  and  _524
REMARK  225  A    between atoms: _523  and  _526
REMARK  226  A    between atoms: _526  and  _527
REMARK  227  A    between atoms: _527  and  _528
REMARK  228  A    between atoms: _528  and  _529
REMARK                            x       y       z     vdW  Elec       q    Type
REMARK                         _______ _______ _______ _____ _____    ______ ____
ROOT
ATOM      1  CA  VAL A   4     -26.644  -0.910 -18.652  0.00  0.00    +0.149 C 
ENDROOT
BRANCH   1   4
ATOM      2  C   ALA A   3     -25.903   1.134 -17.636  0.00  0.00    +0.241 C 
ATOM      3  O   ALA A   3     -26.954   1.214 -17.006  0.00  0.00    -0.273 OA
ATOM      4  N   VAL A   4     -25.653   0.132 -18.463  0.00  0.00    -0.297 N 
ATOM      5  H   VAL A   4     -24.749   0.092 -18.976  0.00  0.00    +0.150 HD
BRANCH   2   6
ATOM      6  CA  ALA A   3     -24.811   2.202 -17.496  0.00  0.00    +0.149 C 
ATOM      7  CB  ALA A   3     -24.116   2.069 -16.142  0.00  0.00    +0.031 C 
BRANCH   6   9
ATOM      8  C   VAL A   2     -25.120   4.289 -18.699  0.00  0.00    +0.241 C 
ATOM      9  N   ALA A   3     -25.379   3.540 -17.634  0.00  0.00    -0.297 N 
ATOM     10  H   ALA A   3     -25.997   3.913 -16.885  0.00  0.00    +0.150 HD
ATOM     11  O   VAL A   2     -24.284   3.970 -19.542  0.00  0.00    -0.273 OA
BRANCH   8  12
ATOM     12  CA  VAL A   2     -25.921   5.586 -18.833  0.00  0.00    +0.148 C 
BRANCH  12  15
ATOM     13  C   THR A   1     -25.175   7.759 -19.659  0.00  0.00    +0.241 C 
ATOM     14  O   THR A   1     -25.469   8.319 -18.601  0.00  0.00    -0.274 OA
ATOM     15  N   VAL A   2     -25.339   6.454 -19.856  0.00  0.00    -0.297 N 
ATOM     16  H   VAL A   2     -25.045   6.039 -20.763  0.00  0.00    +0.150 HD
BRANCH  13  17
ATOM     17  CA  THR A   1     -24.606   8.550 -20.833  0.00  0.00    +0.172 C 
BRANCH  17  18
ATOM     18  N   THR A   1     -25.434   9.725 -21.071  0.00  0.00    -0.236 NA
ATOM     19  H   THR A   1     -25.079  10.664 -20.800  0.00  0.00    +0.142 HD
ENDBRANCH  17  18
BRANCH  17  20
ATOM     20  CB  THR A   1     -23.152   8.953 -20.518  0.00  0.00    +0.135 C 
ATOM     21  CG2 THR A   1     -22.266   7.717 -20.397  0.00  0.00    +0.034 C 
BRANCH  20  22
ATOM     22  OG1 THR A   1     -22.654   9.782 -21.576  0.00  0.00    -0.383 OA
ATOM     23  HG1 THR A   1     -21.720  10.043 -21.377  0.00  0.00    +0.210 HD
ENDBRANCH  20  22
ENDBRANCH  17  20
ENDBRANCH  13  17
ENDBRANCH  12  15
BRANCH  12  24
ATOM     24  CB  VAL A   2     -27.395   5.231 -19.180  0.00  0.00    +0.027 C 
ATOM     25  CG2 VAL A   2     -28.217   6.506 -19.339  0.00  0.00    +0.002 C 
ATOM     26  CG1 VAL A   2     -27.449   4.413 -20.460  0.00  0.00    +0.002 C 
ENDBRANCH  12  24
ENDBRANCH   8  12
ENDBRANCH   6   9
ENDBRANCH   2   6
ENDBRANCH   1   4
BRANCH   1  27
ATOM     27  C   VAL A   4     -26.139  -2.307 -18.320  0.00  0.00    +0.241 C 
ATOM     28  N   LYS A   5     -26.862  -2.969 -17.429  0.00  0.00    -0.297 N 
ATOM     29  H   LYS A   5     -27.674  -2.503 -16.975  0.00  0.00    +0.150 HD
ATOM     30  O   VAL A   4     -25.111  -2.767 -18.826  0.00  0.00    -0.273 OA
BRANCH  28  31
ATOM     31  CA  LYS A   5     -26.532  -4.338 -17.080  0.00  0.00    +0.149 C 
BRANCH  31  32
ATOM     32  C   LYS A   5     -27.325  -5.261 -17.989  0.00  0.00    +0.241 C 
ATOM     33  O   LYS A   5     -28.529  -5.077 -18.177  0.00  0.00    -0.273 OA
ATOM     34  N   MET A   6     -26.637  -6.248 -18.546  0.00  0.00    -0.298 N 
ATOM     35  H   MET A   6     -25.613  -6.307 -18.377  0.00  0.00    +0.150 HD
BRANCH  34  36
ATOM     36  CA  MET A   6     -27.274  -7.251 -19.387  0.00  0.00    +0.138 C 
BRANCH  36  37
ATOM     37  C   MET A   6     -26.478  -8.535 -19.272  0.00  0.00    +0.227 C 
ATOM     38  O   MET A   6     -25.379  -8.548 -18.710  0.00  0.00    -0.286 OA
ENDBRANCH  36  37
BRANCH  36  39
ATOM     39  CB  MET A   6     -27.299  -6.783 -20.842  0.00  0.00    +0.039 C 
BRANCH  39  40
ATOM     40  CG  MET A   6     -25.929  -6.445 -21.394  0.00  0.00    +0.060 C 
BRANCH  40  41
ATOM     41  SD  MET A   6     -26.001  -5.744 -23.058  0.00  0.00    -0.139 S 
ATOM     42  CE  MET A   6     -26.349  -7.221 -24.030  0.00  0.00    +0.069 C 
ENDBRANCH  40  41
ENDBRANCH  39  40
ENDBRANCH  36  39
ENDBRANCH  34  36
ENDBRANCH  31  32
BRANCH  31  43
ATOM     43  CB  LYS A   5     -26.886  -4.641 -15.623  0.00  0.00    +0.029 C 
BRANCH  43  44
ATOM     44  CG  LYS A   5     -26.331  -5.975 -15.127  0.00  0.00    +0.000 C 
BRANCH  44  45
ATOM     45  CD  LYS A   5     -26.579  -6.188 -13.641  0.00  0.00    -0.024 C 
BRANCH  45  46
ATOM     46  CE  LYS A   5     -25.674  -5.298 -12.783  0.00  0.00    -0.086 C 
BRANCH  46  47
ATOM     47  NZ  LYS A   5     -25.845  -5.609 -11.330  0.00  0.00    +0.380 N 
ATOM     48  HZ1 LYS A   5     -25.222  -4.993 -10.769  0.00  0.00    -0.089 HD
ATOM     49  HZ2 LYS A   5     -26.835  -5.445 -11.056  0.00  0.00    -0.089 HD
ATOM     50  HZ3 LYS A   5     -25.597  -6.604 -11.158  0.00  0.00    -0.089 HD
ENDBRANCH  46  47
ENDBRANCH  45  46
ENDBRANCH  44  45
ENDBRANCH  43  44
ENDBRANCH  31  43
ENDBRANCH  28  31
ENDBRANCH   1  27
BRANCH   1  51
ATOM     51  CB  VAL A   4     -27.226  -0.872 -20.090  0.00  0.00    +0.027 C 
ATOM     52  CG2 VAL A   4     -27.937  -2.179 -20.401  0.00  0.00    +0.002 C 
ATOM     53  CG1 VAL A   4     -26.138  -0.613 -21.084  0.00  0.00    +0.002 C 
ENDBRANCH   1  51
TORSDOF 24
REMARK  Name = ../refined-set-2016/4agc/4agc_pocket.pdb
REMARK  228 active torsions:
REMARK  status: ('A' for Active; 'I' for Inactive)
REMARK    1  A    between atoms: _1  and  _3
REMARK    2  A    between atoms: _3  and  _4
REMARK    3  A    between atoms: _3  and  _6
REMARK    4  A    between atoms: _6  and  _7
REMARK    5  A    between atoms: _10  and  _12
REMARK    6  A    between atoms: _12  and  _13
REMARK    7  A    between atoms: _12  and  _15
REMARK    8  A    between atoms: _15  and  _16
REMARK    9  A    between atoms: _18  and  _20
REMARK   10  A    between atoms: _20  and  _21
REMARK   11  A    between atoms: _20  and  _23
REMARK   12  A    between atoms: _23  and  _24
REMARK   13  A    between atoms: _27  and  _29
REMARK   14  A    between atoms: _29  and  _30
REMARK   15  A    between atoms: _29  and  _32
REMARK   16  A    between atoms: _32  and  _33
REMARK   17  A    between atoms: _33  and  _34
REMARK   18  A    between atoms: _34  and  _35
REMARK   19  A    between atoms: _35  and  _36
REMARK   20  A    between atoms: _41  and  _42
REMARK   21  A    between atoms: _47  and  _49
REMARK   22  A    between atoms: _49  and  _50
REMARK   23  A    between atoms: _49  and  _52
REMARK   24  A    between atoms: _52  and  _53
REMARK   25  A    between atoms: _56  and  _58
REMARK   26  A    between atoms: _58  and  _59
REMARK   27  A    between atoms: _61  and  _63
REMARK   28  A    between atoms: _63  and  _64
REMARK   29  A    between atoms: _63  and  _66
REMARK   30  A    between atoms: _66  and  _67
REMARK   31  A    between atoms: _67  and  _68
REMARK   32  A    between atoms: _73  and  _75
REMARK   33  A    between atoms: _75  and  _76
REMARK   34  A    between atoms: _75  and  _78
REMARK   35  A    between atoms: _81  and  _83
REMARK   36  A    between atoms: _83  and  _84
REMARK   37  A    between atoms: _83  and  _86
REMARK   38  A    between atoms: _86  and  _87
REMARK   39  A    between atoms: _90  and  _92
REMARK   40  A    between atoms: _92  and  _93
REMARK   41  A    between atoms: _92  and  _95
REMARK   42  A    between atoms: _95  and  _96
REMARK   43  A    between atoms: _96  and  _97
REMARK   44  A    between atoms: _100  and  _102
REMARK   45  A    between atoms: _102  and  _103
REMARK   46  A    between atoms: _106  and  _108
REMARK   47  A    between atoms: _108  and  _109
REMARK   48  A    between atoms: _108  and  _111
REMARK   49  A    between atoms: _111  and  _112
REMARK   50  A    between atoms: _115  and  _117
REMARK   51  A    between atoms: _117  and  _118
REMARK   52  A    between atoms: _117  and  _120
REMARK   53  A    between atoms: _123  and  _125
REMARK   54  A    between atoms: _125  and  _126
REMARK   55  A    between atoms: _129  and  _131
REMARK   56  A    between atoms: _131  and  _132
REMARK   57  A    between atoms: _131  and  _134
REMARK   58  A    between atoms: _137  and  _139
REMARK   59  A    between atoms: _139  and  _140
REMARK   60  A    between atoms: _139  and  _142
REMARK   61  A    between atoms: _142  and  _143
REMARK   62  A    between atoms: _143  and  _144
REMARK   63  A    between atoms: _144  and  _145
REMARK   64  A    between atoms: _145  and  _146
REMARK   65  A    between atoms: _150  and  _152
REMARK   66  A    between atoms: _152  and  _153
REMARK   67  A    between atoms: _152  and  _155
REMARK   68  A    between atoms: _155  and  _156
REMARK   69  A    between atoms: _156  and  _157
REMARK   70  A    between atoms: _159  and  _161
REMARK   71  A    between atoms: _161  and  _162
REMARK   72  A    between atoms: _161  and  _164
REMARK   73  A    between atoms: _164  and  _165
REMARK   74  A    between atoms: _168  and  _170
REMARK   75  A    between atoms: _170  and  _171
REMARK   76  A    between atoms: _170  and  _173
REMARK   77  A    between atoms: _173  and  _174
REMARK   78  A    between atoms: _174  and  _175
REMARK   79  A    between atoms: _178  and  _180
REMARK   80  A    between atoms: _180  and  _181
REMARK   81  A    between atoms: _180  and  _183
REMARK   82  A    between atoms: _183  and  _184
REMARK   83  A    between atoms: _187  and  _189
REMARK   84  A    between atoms: _189  and  _190
REMARK   85  A    between atoms: _189  and  _192
REMARK   86  A    between atoms: _192  and  _193
REMARK   87  A    between atoms: _196  and  _198
REMARK   88  A    between atoms: _198  and  _199
REMARK   89  A    between atoms: _198  and  _201
REMARK   90  A    between atoms: _201  and  _202
REMARK   91  A    between atoms: _205  and  _207
REMARK   92  A    between atoms: _207  and  _208
REMARK   93  A    between atoms: _207  and  _210
REMARK   94  A    between atoms: _210  and  _211
REMARK   95  A    between atoms: _214  and  _216
REMARK   96  A    between atoms: _216  and  _217
REMARK   97  A    between atoms: _216  and  _219
REMARK   98  A    between atoms: _222  and  _224
REMARK   99  A    between atoms: _224  and  _225
REMARK  100  A    between atoms: _224  and  _227
REMARK  101  A    between atoms: _230  and  _232
REMARK  102  A    between atoms: _232  and  _233
REMARK  103  A    between atoms: _232  and  _235
REMARK  104  A    between atoms: _235  and  _236
REMARK  105  A    between atoms: _241  and  _243
REMARK  106  A    between atoms: _243  and  _244
REMARK  107  A    between atoms: _243  and  _246
REMARK  108  A    between atoms: _246  and  _247
REMARK  109  A    between atoms: _250  and  _252
REMARK  110  A    between atoms: _252  and  _253
REMARK  111  A    between atoms: _252  and  _255
REMARK  112  A    between atoms: _255  and  _256
REMARK  113  A    between atoms: _259  and  _261
REMARK  114  A    between atoms: _261  and  _262
REMARK  115  A    between atoms: _264  and  _266
REMARK  116  A    between atoms: _266  and  _267
REMARK  117  A    between atoms: _266  and  _269
REMARK  118  A    between atoms: _269  and  _270
REMARK  119  A    between atoms: _270  and  _271
REMARK  120  A    between atoms: _273  and  _275
REMARK  121  A    between atoms: _275  and  _276
REMARK  122  A    between atoms: _275  and  _278
REMARK  123  A    between atoms: _281  and  _283
REMARK  124  A    between atoms: _283  and  _284
REMARK  125  A    between atoms: _283  and  _286
REMARK  126  A    between atoms: _286  and  _287
REMARK  127  A    between atoms: _290  and  _292
REMARK  128  A    between atoms: _292  and  _293
REMARK  129  A    between atoms: _292  and  _295
REMARK  130  A    between atoms: _298  and  _300
REMARK  131  A    between atoms: _300  and  _301
REMARK  132  A    between atoms: _300  and  _303
REMARK  133  A    between atoms: _303  and  _304
REMARK  134  A    between atoms: _304  and  _305
REMARK  135  A    between atoms: _308  and  _310
REMARK  136  A    between atoms: _310  and  _311
REMARK  137  A    between atoms: _310  and  _313
REMARK  138  A    between atoms: _313  and  _314
REMARK  139  A    between atoms: _320  and  _322
REMARK  140  A    between atoms: _322  and  _323
REMARK  141  A    between atoms: _322  and  _325
REMARK  142  A    between atoms: _327  and  _329
REMARK  143  A    between atoms: _329  and  _330
REMARK  144  A    between atoms: _329  and  _332
REMARK  145  A    between atoms: _332  and  _333
REMARK  146  A    between atoms: _333  and  _334
REMARK  147  A    between atoms: _334  and  _335
REMARK  148  A    between atoms: _335  and  _336
REMARK  149  A    between atoms: _340  and  _342
REMARK  150  A    between atoms: _342  and  _343
REMARK  151  A    between atoms: _342  and  _345
REMARK  152  A    between atoms: _345  and  _346
REMARK  153  A    between atoms: _352  and  _354
REMARK  154  A    between atoms: _354  and  _355
REMARK  155  A    between atoms: _357  and  _359
REMARK  156  A    between atoms: _359  and  _360
REMARK  157  A    between atoms: _359  and  _362
REMARK  158  A    between atoms: _362  and  _363
REMARK  159  A    between atoms: _368  and  _370
REMARK  160  A    between atoms: _370  and  _371
REMARK  161  A    between atoms: _370  and  _373
REMARK  162  A    between atoms: _373  and  _374
REMARK  163  A    between atoms: _377  and  _379
REMARK  164  A    between atoms: _379  and  _380
REMARK  165  A    between atoms: _379  and  _382
REMARK  166  A    between atoms: _382  and  _383
REMARK  167  A    between atoms: _388  and  _390
REMARK  168  A    between atoms: _390  and  _391
REMARK  169  A    between atoms: _390  and  _393
REMARK  170  A    between atoms: _393  and  _394
REMARK  171  A    between atoms: _394  and  _395
REMARK  172  A    between atoms: _395  and  _396
REMARK  173  A    between atoms: _405  and  _407
REMARK  174  A    between atoms: _407  and  _408
REMARK  175  A    between atoms: _407  and  _410
REMARK  176  A    between atoms: _410  and  _411
REMARK  177  A    between atoms: _416  and  _418
REMARK  178  A    between atoms: _418  and  _419
REMARK  179  A    between atoms: _418  and  _421
REMARK  180  A    between atoms: _421  and  _422
REMARK  181  A    between atoms: _425  and  _427
REMARK  182  A    between atoms: _427  and  _428
REMARK  183  A    between atoms: _427  and  _430
REMARK  184  A    between atoms: _430  and  _431
REMARK  185  A    between atoms: _434  and  _436
REMARK  186  A    between atoms: _436  and  _437
REMARK  187  A    between atoms: _436  and  _439
REMARK  188  A    between atoms: _439  and  _440
REMARK  189  A    between atoms: _443  and  _445
REMARK  190  A    between atoms: _445  and  _446
REMARK  191  A    between atoms: _445  and  _448
REMARK  192  A    between atoms: _448  and  _449
REMARK  193  A    between atoms: _451  and  _453
REMARK  194  A    between atoms: _453  and  _454
REMARK  195  A    between atoms: _453  and  _456
REMARK  196  A    between atoms: _456  and  _457
REMARK  197  A    between atoms: _457  and  _458
REMARK  198  A    between atoms: _458  and  _459
REMARK  199  A    between atoms: _459  and  _460
REMARK  200  A    between atoms: _464  and  _466
REMARK  201  A    between atoms: _466  and  _467
REMARK  202  A    between atoms: _466  and  _469
REMARK  203  A    between atoms: _469  and  _470
REMARK  204  A    between atoms: _473  and  _475
REMARK  205  A    between atoms: _475  and  _476
REMARK  206  A    between atoms: _475  and  _478
REMARK  207  A    between atoms: _480  and  _482
REMARK  208  A    between atoms: _482  and  _483
REMARK  209  A    between atoms: _482  and  _485
REMARK  210  A    between atoms: _485  and  _486
REMARK  211  A    between atoms: _489  and  _491
REMARK  212  A    between atoms: _491  and  _492
REMARK  213  A    between atoms: _491  and  _494
REMARK  214  A    between atoms: _494  and  _495
REMARK  215  A    between atoms: _501  and  _503
REMARK  216  A    between atoms: _503  and  _504
REMARK  217  A    between atoms: _506  and  _508
REMARK  218  A    between atoms: _508  and  _509
REMARK  219  A    between atoms: _508  and  _511
REMARK  220  A    between atoms: _511  and  _512
REMARK  221  A    between atoms: _515  and  _517
REMARK  222  A    between atoms: _517  and  _518
REMARK  223  A    between atoms: _521  and  _523
REMARK  224  A    between atoms: _523  and  _524
REMARK  225  A    between atoms: _523  and  _526
REMARK  226  A    between atoms: _526  and  _527
REMARK  227  A    between atoms: _527  and  _528
REMARK  228  A    between atoms: _528  and  _529
REMARK                            x       y       z     vdW  Elec       q    Type
REMARK                         _______ _______ _______ _____ _____    ______ ____
ROOT
ATOM      1  CA  LEU A   1     -31.716  -9.878 -13.552  0.00  0.00    +0.133 C 
ENDROOT
BRANCH   1   2
ATOM      2  N   LEU A   1     -31.824 -11.274 -13.140  0.00  0.00    -0.239 NA
ATOM      3  H   LEU A   1     -31.613 -12.027 -13.825  0.00  0.00    +0.142 HD
ENDBRANCH   1   2
BRANCH   1   4
ATOM      4  C   LEU A   1     -33.077  -9.189 -13.468  0.00  0.00    +0.224 C 
ATOM      5  O   LEU A   1     -33.174  -8.014 -13.112  0.00  0.00    -0.287 OA
ENDBRANCH   1   4
BRANCH   1   6
ATOM      6  CB  LEU A   1     -31.166  -9.792 -14.981  0.00  0.00    +0.025 C 
BRANCH   6   7
ATOM      7  CG  LEU A   1     -30.886  -8.399 -15.568  0.00  0.00    +0.002 C 
ATOM      8  CD2 LEU A   1     -29.968  -7.599 -14.632  0.00  0.00    +0.000 C 
ATOM      9  CD1 LEU A   1     -30.239  -8.559 -16.942  0.00  0.00    +0.000 C 
ENDBRANCH   6   7
ENDBRANCH   1   6
TORSDOF 4
REMARK  Name = ../refined-set-2016/4agc/4agc_pocket.pdb
REMARK  228 active torsions:
REMARK  status: ('A' for Active; 'I' for Inactive)
REMARK    1  A    between atoms: _1  and  _3
REMARK    2  A    between atoms: _3  and  _4
REMARK    3  A    between atoms: _3  and  _6
REMARK    4  A    between atoms: _6  and  _7
REMARK    5  A    between atoms: _10  and  _12
REMARK    6  A    between atoms: _12  and  _13
REMARK    7  A    between atoms: _12  and  _15
REMARK    8  A    between atoms: _15  and  _16
REMARK    9  A    between atoms: _18  and  _20
REMARK   10  A    between atoms: _20  and  _21
REMARK   11  A    between atoms: _20  and  _23
REMARK   12  A    between atoms: _23  and  _24
REMARK   13  A    between atoms: _27  and  _29
REMARK   14  A    between atoms: _29  and  _30
REMARK   15  A    between atoms: _29  and  _32
REMARK   16  A    between atoms: _32  and  _33
REMARK   17  A    between atoms: _33  and  _34
REMARK   18  A    between atoms: _34  and  _35
REMARK   19  A    between atoms: _35  and  _36
REMARK   20  A    between atoms: _41  and  _42
REMARK   21  A    between atoms: _47  and  _49
REMARK   22  A    between atoms: _49  and  _50
REMARK   23  A    between atoms: _49  and  _52
REMARK   24  A    between atoms: _52  and  _53
REMARK   25  A    between atoms: _56  and  _58
REMARK   26  A    between atoms: _58  and  _59
REMARK   27  A    between atoms: _61  and  _63
REMARK   28  A    between atoms: _63  and  _64
REMARK   29  A    between atoms: _63  and  _66
REMARK   30  A    between atoms: _66  and  _67
REMARK   31  A    between atoms: _67  and  _68
REMARK   32  A    between atoms: _73  and  _75
REMARK   33  A    between atoms: _75  and  _76
REMARK   34  A    between atoms: _75  and  _78
REMARK   35  A    between atoms: _81  and  _83
REMARK   36  A    between atoms: _83  and  _84
REMARK   37  A    between atoms: _83  and  _86
REMARK   38  A    between atoms: _86  and  _87
REMARK   39  A    between atoms: _90  and  _92
REMARK   40  A    between atoms: _92  and  _93
REMARK   41  A    between atoms: _92  and  _95
REMARK   42  A    between atoms: _95  and  _96
REMARK   43  A    between atoms: _96  and  _97
REMARK   44  A    between atoms: _100  and  _102
REMARK   45  A    between atoms: _102  and  _103
REMARK   46  A    between atoms: _106  and  _108
REMARK   47  A    between atoms: _108  and  _109
REMARK   48  A    between atoms: _108  and  _111
REMARK   49  A    between atoms: _111  and  _112
REMARK   50  A    between atoms: _115  and  _117
REMARK   51  A    between atoms: _117  and  _118
REMARK   52  A    between atoms: _117  and  _120
REMARK   53  A    between atoms: _123  and  _125
REMARK   54  A    between atoms: _125  and  _126
REMARK   55  A    between atoms: _129  and  _131
REMARK   56  A    between atoms: _131  and  _132
REMARK   57  A    between atoms: _131  and  _134
REMARK   58  A    between atoms: _137  and  _139
REMARK   59  A    between atoms: _139  and  _140
REMARK   60  A    between atoms: _139  and  _142
REMARK   61  A    between atoms: _142  and  _143
REMARK   62  A    between atoms: _143  and  _144
REMARK   63  A    between atoms: _144  and  _145
REMARK   64  A    between atoms: _145  and  _146
REMARK   65  A    between atoms: _150  and  _152
REMARK   66  A    between atoms: _152  and  _153
REMARK   67  A    between atoms: _152  and  _155
REMARK   68  A    between atoms: _155  and  _156
REMARK   69  A    between atoms: _156  and  _157
REMARK   70  A    between atoms: _159  and  _161
REMARK   71  A    between atoms: _161  and  _162
REMARK   72  A    between atoms: _161  and  _164
REMARK   73  A    between atoms: _164  and  _165
REMARK   74  A    between atoms: _168  and  _170
REMARK   75  A    between atoms: _170  and  _171
REMARK   76  A    between atoms: _170  and  _173
REMARK   77  A    between atoms: _173  and  _174
REMARK   78  A    between atoms: _174  and  _175
REMARK   79  A    between atoms: _178  and  _180
REMARK   80  A    between atoms: _180  and  _181
REMARK   81  A    between atoms: _180  and  _183
REMARK   82  A    between atoms: _183  and  _184
REMARK   83  A    between atoms: _187  and  _189
REMARK   84  A    between atoms: _189  and  _190
REMARK   85  A    between atoms: _189  and  _192
REMARK   86  A    between atoms: _192  and  _193
REMARK   87  A    between atoms: _196  and  _198
REMARK   88  A    between atoms: _198  and  _199
REMARK   89  A    between atoms: _198  and  _201
REMARK   90  A    between atoms: _201  and  _202
REMARK   91  A    between atoms: _205  and  _207
REMARK   92  A    between atoms: _207  and  _208
REMARK   93  A    between atoms: _207  and  _210
REMARK   94  A    between atoms: _210  and  _211
REMARK   95  A    between atoms: _214  and  _216
REMARK   96  A    between atoms: _216  and  _217
REMARK   97  A    between atoms: _216  and  _219
REMARK   98  A    between atoms: _222  and  _224
REMARK   99  A    between atoms: _224  and  _225
REMARK  100  A    between atoms: _224  and  _227
REMARK  101  A    between atoms: _230  and  _232
REMARK  102  A    between atoms: _232  and  _233
REMARK  103  A    between atoms: _232  and  _235
REMARK  104  A    between atoms: _235  and  _236
REMARK  105  A    between atoms: _241  and  _243
REMARK  106  A    between atoms: _243  and  _244
REMARK  107  A    between atoms: _243  and  _246
REMARK  108  A    between atoms: _246  and  _247
REMARK  109  A    between atoms: _250  and  _252
REMARK  110  A    between atoms: _252  and  _253
REMARK  111  A    between atoms: _252  and  _255
REMARK  112  A    between atoms: _255  and  _256
REMARK  113  A    between atoms: _259  and  _261
REMARK  114  A    between atoms: _261  and  _262
REMARK  115  A    between atoms: _264  and  _266
REMARK  116  A    between atoms: _266  and  _267
REMARK  117  A    between atoms: _266  and  _269
REMARK  118  A    between atoms: _269  and  _270
REMARK  119  A    between atoms: _270  and  _271
REMARK  120  A    between atoms: _273  and  _275
REMARK  121  A    between atoms: _275  and  _276
REMARK  122  A    between atoms: _275  and  _278
REMARK  123  A    between atoms: _281  and  _283
REMARK  124  A    between atoms: _283  and  _284
REMARK  125  A    between atoms: _283  and  _286
REMARK  126  A    between atoms: _286  and  _287
REMARK  127  A    between atoms: _290  and  _292
REMARK  128  A    between atoms: _292  and  _293
REMARK  129  A    between atoms: _292  and  _295
REMARK  130  A    between atoms: _298  and  _300
REMARK  131  A    between atoms: _300  and  _301
REMARK  132  A    between atoms: _300  and  _303
REMARK  133  A    between atoms: _303  and  _304
REMARK  134  A    between atoms: _304  and  _305
REMARK  135  A    between atoms: _308  and  _310
REMARK  136  A    between atoms: _310  and  _311
REMARK  137  A    between atoms: _310  and  _313
REMARK  138  A    between atoms: _313  and  _314
REMARK  139  A    between atoms: _320  and  _322
REMARK  140  A    between atoms: _322  and  _323
REMARK  141  A    between atoms: _322  and  _325
REMARK  142  A    between atoms: _327  and  _329
REMARK  143  A    between atoms: _329  and  _330
REMARK  144  A    between atoms: _329  and  _332
REMARK  145  A    between atoms: _332  and  _333
REMARK  146  A    between atoms: _333  and  _334
REMARK  147  A    between atoms: _334  and  _335
REMARK  148  A    between atoms: _335  and  _336
REMARK  149  A    between atoms: _340  and  _342
REMARK  150  A    between atoms: _342  and  _343
REMARK  151  A    between atoms: _342  and  _345
REMARK  152  A    between atoms: _345  and  _346
REMARK  153  A    between atoms: _352  and  _354
REMARK  154  A    between atoms: _354  and  _355
REMARK  155  A    between atoms: _357  and  _359
REMARK  156  A    between atoms: _359  and  _360
REMARK  157  A    between atoms: _359  and  _362
REMARK  158  A    between atoms: _362  and  _363
REMARK  159  A    between atoms: _368  and  _370
REMARK  160  A    between atoms: _370  and  _371
REMARK  161  A    between atoms: _370  and  _373
REMARK  162  A    between atoms: _373  and  _374
REMARK  163  A    between atoms: _377  and  _379
REMARK  164  A    between atoms: _379  and  _380
REMARK  165  A    between atoms: _379  and  _382
REMARK  166  A    between atoms: _382  and  _383
REMARK  167  A    between atoms: _388  and  _390
REMARK  168  A    between atoms: _390  and  _391
REMARK  169  A    between atoms: _390  and  _393
REMARK  170  A    between atoms: _393  and  _394
REMARK  171  A    between atoms: _394  and  _395
REMARK  172  A    between atoms: _395  and  _396
REMARK  173  A    between atoms: _405  and  _407
REMARK  174  A    between atoms: _407  and  _408
REMARK  175  A    between atoms: _407  and  _410
REMARK  176  A    between atoms: _410  and  _411
REMARK  177  A    between atoms: _416  and  _418
REMARK  178  A    between atoms: _418  and  _419
REMARK  179  A    between atoms: _418  and  _421
REMARK  180  A    between atoms: _421  and  _422
REMARK  181  A    between atoms: _425  and  _427
REMARK  182  A    between atoms: _427  and  _428
REMARK  183  A    between atoms: _427  and  _430
REMARK  184  A    between atoms: _430  and  _431
REMARK  185  A    between atoms: _434  and  _436
REMARK  186  A    between atoms: _436  and  _437
REMARK  187  A    between atoms: _436  and  _439
REMARK  188  A    between atoms: _439  and  _440
REMARK  189  A    between atoms: _443  and  _445
REMARK  190  A    between atoms: _445  and  _446
REMARK  191  A    between atoms: _445  and  _448
REMARK  192  A    between atoms: _448  and  _449
REMARK  193  A    between atoms: _451  and  _453
REMARK  194  A    between atoms: _453  and  _454
REMARK  195  A    between atoms: _453  and  _456
REMARK  196  A    between atoms: _456  and  _457
REMARK  197  A    between atoms: _457  and  _458
REMARK  198  A    between atoms: _458  and  _459
REMARK  199  A    between atoms: _459  and  _460
REMARK  200  A    between atoms: _464  and  _466
REMARK  201  A    between atoms: _466  and  _467
REMARK  202  A    between atoms: _466  and  _469
REMARK  203  A    between atoms: _469  and  _470
REMARK  204  A    between atoms: _473  and  _475
REMARK  205  A    between atoms: _475  and  _476
REMARK  206  A    between atoms: _475  and  _478
REMARK  207  A    between atoms: _480  and  _482
REMARK  208  A    between atoms: _482  and  _483
REMARK  209  A    between atoms: _482  and  _485
REMARK  210  A    between atoms: _485  and  _486
REMARK  211  A    between atoms: _489  and  _491
REMARK  212  A    between atoms: _491  and  _492
REMARK  213  A    between atoms: _491  and  _494
REMARK  214  A    between atoms: _494  and  _495
REMARK  215  A    between atoms: _501  and  _503
REMARK  216  A    between atoms: _503  and  _504
REMARK  217  A    between atoms: _506  and  _508
REMARK  218  A    between atoms: _508  and  _509
REMARK  219  A    between atoms: _508  and  _511
REMARK  220  A    between atoms: _511  and  _512
REMARK  221  A    between atoms: _515  and  _517
REMARK  222  A    between atoms: _517  and  _518
REMARK  223  A    between atoms: _521  and  _523
REMARK  224  A    between atoms: _523  and  _524
REMARK  225  A    between atoms: _523  and  _526
REMARK  226  A    between atoms: _526  and  _527
REMARK  227  A    between atoms: _527  and  _528
REMARK  228  A    between atoms: _528  and  _529
REMARK                            x       y       z     vdW  Elec       q    Type
REMARK                         _______ _______ _______ _____ _____    ______ ____
ROOT
ATOM      1  C   GLU A   1     -33.534  -5.823 -10.140  0.00  0.00    +0.238 C 
ATOM      2  O   GLU A   1     -33.611  -4.848  -9.389  0.00  0.00    -0.274 OA
ATOM      3  N   LEU A   2     -34.089  -5.841 -11.349  0.00  0.00    -0.298 N 
ATOM      4  H   LEU A   2     -33.964  -6.675 -11.958  0.00  0.00    +0.150 HD
ENDROOT
BRANCH   1   5
ATOM      5  CA  GLU A   1     -32.787  -7.092  -9.709  0.00  0.00    +0.145 C 
BRANCH   5   6
ATOM      6  N   GLU A   1     -33.605  -8.273  -9.985  0.00  0.00    -0.238 NA
ATOM      7  H   GLU A   1     -33.254  -9.000 -10.640  0.00  0.00    +0.142 HD
ENDBRANCH   5   6
BRANCH   5   8
ATOM      8  CB  GLU A   1     -31.446  -7.176 -10.450  0.00  0.00    +0.038 C 
BRANCH   8   9
ATOM      9  CG  GLU A   1     -30.530  -5.987 -10.192  0.00  0.00    +0.116 C 
BRANCH   9  10
ATOM     10  CD  GLU A   1     -29.140  -6.169 -10.774  0.00  0.00    +0.365 C 
ATOM     11  OE2 GLU A   1     -28.730  -7.329 -10.999  0.00  0.00    -0.246 OA
ATOM     12  OE1 GLU A   1     -28.454  -5.150 -11.001  0.00  0.00    -0.246 OA
ENDBRANCH   9  10
ENDBRANCH   8   9
ENDBRANCH   5   8
ENDBRANCH   1   5
BRANCH   3  13
ATOM     13  CA  LEU A   2     -34.872  -4.706 -11.835  0.00  0.00    +0.137 C 
BRANCH  13  14
ATOM     14  C   LEU A   2     -36.005  -4.390 -10.861  0.00  0.00    +0.227 C 
ATOM     15  O   LEU A   2     -36.238  -3.233 -10.500  0.00  0.00    -0.286 OA
ENDBRANCH  13  14
BRANCH  13  16
ATOM     16  CB  LEU A   2     -35.462  -5.014 -13.214  0.00  0.00    +0.028 C 
BRANCH  16  17
ATOM     17  CG  LEU A   2     -36.485  -4.002 -13.742  0.00  0.00    +0.002 C 
ATOM     18  CD2 LEU A   2     -35.859  -2.619 -13.820  0.00  0.00    +0.000 C 
ATOM     19  CD1 LEU A   2     -36.977  -4.442 -15.110  0.00  0.00    +0.000 C 
ENDBRANCH  16  17
ENDBRANCH  13  16
ENDBRANCH   3  13
TORSDOF 9
REMARK  Name = ../refined-set-2016/4agc/4agc_pocket.pdb
REMARK  228 active torsions:
REMARK  status: ('A' for Active; 'I' for Inactive)
REMARK    1  A    between atoms: _1  and  _3
REMARK    2  A    between atoms: _3  and  _4
REMARK    3  A    between atoms: _3  and  _6
REMARK    4  A    between atoms: _6  and  _7
REMARK    5  A    between atoms: _10  and  _12
REMARK    6  A    between atoms: _12  and  _13
REMARK    7  A    between atoms: _12  and  _15
REMARK    8  A    between atoms: _15  and  _16
REMARK    9  A    between atoms: _18  and  _20
REMARK   10  A    between atoms: _20  and  _21
REMARK   11  A    between atoms: _20  and  _23
REMARK   12  A    between atoms: _23  and  _24
REMARK   13  A    between atoms: _27  and  _29
REMARK   14  A    between atoms: _29  and  _30
REMARK   15  A    between atoms: _29  and  _32
REMARK   16  A    between atoms: _32  and  _33
REMARK   17  A    between atoms: _33  and  _34
REMARK   18  A    between atoms: _34  and  _35
REMARK   19  A    between atoms: _35  and  _36
REMARK   20  A    between atoms: _41  and  _42
REMARK   21  A    between atoms: _47  and  _49
REMARK   22  A    between atoms: _49  and  _50
REMARK   23  A    between atoms: _49  and  _52
REMARK   24  A    between atoms: _52  and  _53
REMARK   25  A    between atoms: _56  and  _58
REMARK   26  A    between atoms: _58  and  _59
REMARK   27  A    between atoms: _61  and  _63
REMARK   28  A    between atoms: _63  and  _64
REMARK   29  A    between atoms: _63  and  _66
REMARK   30  A    between atoms: _66  and  _67
REMARK   31  A    between atoms: _67  and  _68
REMARK   32  A    between atoms: _73  and  _75
REMARK   33  A    between atoms: _75  and  _76
REMARK   34  A    between atoms: _75  and  _78
REMARK   35  A    between atoms: _81  and  _83
REMARK   36  A    between atoms: _83  and  _84
REMARK   37  A    between atoms: _83  and  _86
REMARK   38  A    between atoms: _86  and  _87
REMARK   39  A    between atoms: _90  and  _92
REMARK   40  A    between atoms: _92  and  _93
REMARK   41  A    between atoms: _92  and  _95
REMARK   42  A    between atoms: _95  and  _96
REMARK   43  A    between atoms: _96  and  _97
REMARK   44  A    between atoms: _100  and  _102
REMARK   45  A    between atoms: _102  and  _103
REMARK   46  A    between atoms: _106  and  _108
REMARK   47  A    between atoms: _108  and  _109
REMARK   48  A    between atoms: _108  and  _111
REMARK   49  A    between atoms: _111  and  _112
REMARK   50  A    between atoms: _115  and  _117
REMARK   51  A    between atoms: _117  and  _118
REMARK   52  A    between atoms: _117  and  _120
REMARK   53  A    between atoms: _123  and  _125
REMARK   54  A    between atoms: _125  and  _126
REMARK   55  A    between atoms: _129  and  _131
REMARK   56  A    between atoms: _131  and  _132
REMARK   57  A    between atoms: _131  and  _134
REMARK   58  A    between atoms: _137  and  _139
REMARK   59  A    between atoms: _139  and  _140
REMARK   60  A    between atoms: _139  and  _142
REMARK   61  A    between atoms: _142  and  _143
REMARK   62  A    between atoms: _143  and  _144
REMARK   63  A    between atoms: _144  and  _145
REMARK   64  A    between atoms: _145  and  _146
REMARK   65  A    between atoms: _150  and  _152
REMARK   66  A    between atoms: _152  and  _153
REMARK   67  A    between atoms: _152  and  _155
REMARK   68  A    between atoms: _155  and  _156
REMARK   69  A    between atoms: _156  and  _157
REMARK   70  A    between atoms: _159  and  _161
REMARK   71  A    between atoms: _161  and  _162
REMARK   72  A    between atoms: _161  and  _164
REMARK   73  A    between atoms: _164  and  _165
REMARK   74  A    between atoms: _168  and  _170
REMARK   75  A    between atoms: _170  and  _171
REMARK   76  A    between atoms: _170  and  _173
REMARK   77  A    between atoms: _173  and  _174
REMARK   78  A    between atoms: _174  and  _175
REMARK   79  A    between atoms: _178  and  _180
REMARK   80  A    between atoms: _180  and  _181
REMARK   81  A    between atoms: _180  and  _183
REMARK   82  A    between atoms: _183  and  _184
REMARK   83  A    between atoms: _187  and  _189
REMARK   84  A    between atoms: _189  and  _190
REMARK   85  A    between atoms: _189  and  _192
REMARK   86  A    between atoms: _192  and  _193
REMARK   87  A    between atoms: _196  and  _198
REMARK   88  A    between atoms: _198  and  _199
REMARK   89  A    between atoms: _198  and  _201
REMARK   90  A    between atoms: _201  and  _202
REMARK   91  A    between atoms: _205  and  _207
REMARK   92  A    between atoms: _207  and  _208
REMARK   93  A    between atoms: _207  and  _210
REMARK   94  A    between atoms: _210  and  _211
REMARK   95  A    between atoms: _214  and  _216
REMARK   96  A    between atoms: _216  and  _217
REMARK   97  A    between atoms: _216  and  _219
REMARK   98  A    between atoms: _222  and  _224
REMARK   99  A    between atoms: _224  and  _225
REMARK  100  A    between atoms: _224  and  _227
REMARK  101  A    between atoms: _230  and  _232
REMARK  102  A    between atoms: _232  and  _233
REMARK  103  A    between atoms: _232  and  _235
REMARK  104  A    between atoms: _235  and  _236
REMARK  105  A    between atoms: _241  and  _243
REMARK  106  A    between atoms: _243  and  _244
REMARK  107  A    between atoms: _243  and  _246
REMARK  108  A    between atoms: _246  and  _247
REMARK  109  A    between atoms: _250  and  _252
REMARK  110  A    between atoms: _252  and  _253
REMARK  111  A    between atoms: _252  and  _255
REMARK  112  A    between atoms: _255  and  _256
REMARK  113  A    between atoms: _259  and  _261
REMARK  114  A    between atoms: _261  and  _262
REMARK  115  A    between atoms: _264  and  _266
REMARK  116  A    between atoms: _266  and  _267
REMARK  117  A    between atoms: _266  and  _269
REMARK  118  A    between atoms: _269  and  _270
REMARK  119  A    between atoms: _270  and  _271
REMARK  120  A    between atoms: _273  and  _275
REMARK  121  A    between atoms: _275  and  _276
REMARK  122  A    between atoms: _275  and  _278
REMARK  123  A    between atoms: _281  and  _283
REMARK  124  A    between atoms: _283  and  _284
REMARK  125  A    between atoms: _283  and  _286
REMARK  126  A    between atoms: _286  and  _287
REMARK  127  A    between atoms: _290  and  _292
REMARK  128  A    between atoms: _292  and  _293
REMARK  129  A    between atoms: _292  and  _295
REMARK  130  A    between atoms: _298  and  _300
REMARK  131  A    between atoms: _300  and  _301
REMARK  132  A    between atoms: _300  and  _303
REMARK  133  A    between atoms: _303  and  _304
REMARK  134  A    between atoms: _304  and  _305
REMARK  135  A    between atoms: _308  and  _310
REMARK  136  A    between atoms: _310  and  _311
REMARK  137  A    between atoms: _310  and  _313
REMARK  138  A    between atoms: _313  and  _314
REMARK  139  A    between atoms: _320  and  _322
REMARK  140  A    between atoms: _322  and  _323
REMARK  141  A    between atoms: _322  and  _325
REMARK  142  A    between atoms: _327  and  _329
REMARK  143  A    between atoms: _329  and  _330
REMARK  144  A    between atoms: _329  and  _332
REMARK  145  A    between atoms: _332  and  _333
REMARK  146  A    between atoms: _333  and  _334
REMARK  147  A    between atoms: _334  and  _335
REMARK  148  A    between atoms: _335  and  _336
REMARK  149  A    between atoms: _340  and  _342
REMARK  150  A    between atoms: _342  and  _343
REMARK  151  A    between atoms: _342  and  _345
REMARK  152  A    between atoms: _345  and  _346
REMARK  153  A    between atoms: _352  and  _354
REMARK  154  A    between atoms: _354  and  _355
REMARK  155  A    between atoms: _357  and  _359
REMARK  156  A    between atoms: _359  and  _360
REMARK  157  A    between atoms: _359  and  _362
REMARK  158  A    between atoms: _362  and  _363
REMARK  159  A    between atoms: _368  and  _370
REMARK  160  A    between atoms: _370  and  _371
REMARK  161  A    between atoms: _370  and  _373
REMARK  162  A    between atoms: _373  and  _374
REMARK  163  A    between atoms: _377  and  _379
REMARK  164  A    between atoms: _379  and  _380
REMARK  165  A    between atoms: _379  and  _382
REMARK  166  A    between atoms: _382  and  _383
REMARK  167  A    between atoms: _388  and  _390
REMARK  168  A    between atoms: _390  and  _391
REMARK  169  A    between atoms: _390  and  _393
REMARK  170  A    between atoms: _393  and  _394
REMARK  171  A    between atoms: _394  and  _395
REMARK  172  A    between atoms: _395  and  _396
REMARK  173  A    between atoms: _405  and  _407
REMARK  174  A    between atoms: _407  and  _408
REMARK  175  A    between atoms: _407  and  _410
REMARK  176  A    between atoms: _410  and  _411
REMARK  177  A    between atoms: _416  and  _418
REMARK  178  A    between atoms: _418  and  _419
REMARK  179  A    between atoms: _418  and  _421
REMARK  180  A    between atoms: _421  and  _422
REMARK  181  A    between atoms: _425  and  _427
REMARK  182  A    between atoms: _427  and  _428
REMARK  183  A    between atoms: _427  and  _430
REMARK  184  A    between atoms: _430  and  _431
REMARK  185  A    between atoms: _434  and  _436
REMARK  186  A    between atoms: _436  and  _437
REMARK  187  A    between atoms: _436  and  _439
REMARK  188  A    between atoms: _439  and  _440
REMARK  189  A    between atoms: _443  and  _445
REMARK  190  A    between atoms: _445  and  _446
REMARK  191  A    between atoms: _445  and  _448
REMARK  192  A    between atoms: _448  and  _449
REMARK  193  A    between atoms: _451  and  _453
REMARK  194  A    between atoms: _453  and  _454
REMARK  195  A    between atoms: _453  and  _456
REMARK  196  A    between atoms: _456  and  _457
REMARK  197  A    between atoms: _457  and  _458
REMARK  198  A    between atoms: _458  and  _459
REMARK  199  A    between atoms: _459  and  _460
REMARK  200  A    between atoms: _464  and  _466
REMARK  201  A    between atoms: _466  and  _467
REMARK  202  A    between atoms: _466  and  _469
REMARK  203  A    between atoms: _469  and  _470
REMARK  204  A    between atoms: _473  and  _475
REMARK  205  A    between atoms: _475  and  _476
REMARK  206  A    between atoms: _475  and  _478
REMARK  207  A    between atoms: _480  and  _482
REMARK  208  A    between atoms: _482  and  _483
REMARK  209  A    between atoms: _482  and  _485
REMARK  210  A    between atoms: _485  and  _486
REMARK  211  A    between atoms: _489  and  _491
REMARK  212  A    between atoms: _491  and  _492
REMARK  213  A    between atoms: _491  and  _494
REMARK  214  A    between atoms: _494  and  _495
REMARK  215  A    between atoms: _501  and  _503
REMARK  216  A    between atoms: _503  and  _504
REMARK  217  A    between atoms: _506  and  _508
REMARK  218  A    between atoms: _508  and  _509
REMARK  219  A    between atoms: _508  and  _511
REMARK  220  A    between atoms: _511  and  _512
REMARK  221  A    between atoms: _515  and  _517
REMARK  222  A    between atoms: _517  and  _518
REMARK  223  A    between atoms: _521  and  _523
REMARK  224  A    between atoms: _523  and  _524
REMARK  225  A    between atoms: _523  and  _526
REMARK  226  A    between atoms: _526  and  _527
REMARK  227  A    between atoms: _527  and  _528
REMARK  228  A    between atoms: _528  and  _529
REMARK                            x       y       z     vdW  Elec       q    Type
REMARK                         _______ _______ _______ _____ _____    ______ ____
ROOT
ATOM      1  C   ILE A   1     -35.460  -3.170  -6.425  0.00  0.00    +0.238 C 
ATOM      2  O   ILE A   1     -35.644  -2.391  -5.500  0.00  0.00    -0.274 OA
ATOM      3  N   LEU A   2     -34.852  -2.812  -7.550  0.00  0.00    -0.298 N 
ATOM      4  H   LEU A   2     -34.660  -3.527  -8.281  0.00  0.00    +0.150 HD
ENDROOT
BRANCH   1   5
ATOM      5  CA  ILE A   1     -35.956  -4.612  -6.329  0.00  0.00    +0.145 C 
BRANCH   5   6
ATOM      6  N   ILE A   1     -36.327  -5.115  -7.642  0.00  0.00    -0.238 NA
ATOM      7  H   ILE A   1     -35.713  -5.785  -8.148  0.00  0.00    +0.142 HD
ENDBRANCH   5   6
BRANCH   5   8
ATOM      8  CB  ILE A   1     -34.877  -5.488  -5.647  0.00  0.00    +0.025 C 
ATOM      9  CG2 ILE A   1     -33.541  -5.312  -6.338  0.00  0.00    +0.002 C 
BRANCH   8  10
ATOM     10  CG1 ILE A   1     -34.739  -5.074  -4.179  0.00  0.00    +0.002 C 
ATOM     11  CD1 ILE A   1     -34.082  -6.125  -3.304  0.00  0.00    +0.000 C 
ENDBRANCH   8  10
ENDBRANCH   5   8
ENDBRANCH   1   5
BRANCH   3  12
ATOM     12  CA  LEU A   2     -34.449  -1.423  -7.773  0.00  0.00    +0.137 C 
BRANCH  12  13
ATOM     13  C   LEU A   2     -35.676  -0.521  -7.861  0.00  0.00    +0.227 C 
ATOM     14  O   LEU A   2     -35.674   0.601  -7.359  0.00  0.00    -0.286 OA
ENDBRANCH  12  13
BRANCH  12  15
ATOM     15  CB  LEU A   2     -33.613  -1.300  -9.059  0.00  0.00    +0.028 C 
BRANCH  15  16
ATOM     16  CG  LEU A   2     -32.186  -1.861  -8.962  0.00  0.00    +0.002 C 
ATOM     17  CD2 LEU A   2     -31.379  -1.041  -7.971  0.00  0.00    +0.000 C 
ATOM     18  CD1 LEU A   2     -31.524  -1.850 -10.327  0.00  0.00    +0.000 C 
ENDBRANCH  15  16
ENDBRANCH  12  15
ENDBRANCH   3  12
TORSDOF 8
REMARK  Name = ../refined-set-2016/4agc/4agc_pocket.pdb
REMARK  228 active torsions:
REMARK  status: ('A' for Active; 'I' for Inactive)
REMARK    1  A    between atoms: _1  and  _3
REMARK    2  A    between atoms: _3  and  _4
REMARK    3  A    between atoms: _3  and  _6
REMARK    4  A    between atoms: _6  and  _7
REMARK    5  A    between atoms: _10  and  _12
REMARK    6  A    between atoms: _12  and  _13
REMARK    7  A    between atoms: _12  and  _15
REMARK    8  A    between atoms: _15  and  _16
REMARK    9  A    between atoms: _18  and  _20
REMARK   10  A    between atoms: _20  and  _21
REMARK   11  A    between atoms: _20  and  _23
REMARK   12  A    between atoms: _23  and  _24
REMARK   13  A    between atoms: _27  and  _29
REMARK   14  A    between atoms: _29  and  _30
REMARK   15  A    between atoms: _29  and  _32
REMARK   16  A    between atoms: _32  and  _33
REMARK   17  A    between atoms: _33  and  _34
REMARK   18  A    between atoms: _34  and  _35
REMARK   19  A    between atoms: _35  and  _36
REMARK   20  A    between atoms: _41  and  _42
REMARK   21  A    between atoms: _47  and  _49
REMARK   22  A    between atoms: _49  and  _50
REMARK   23  A    between atoms: _49  and  _52
REMARK   24  A    between atoms: _52  and  _53
REMARK   25  A    between atoms: _56  and  _58
REMARK   26  A    between atoms: _58  and  _59
REMARK   27  A    between atoms: _61  and  _63
REMARK   28  A    between atoms: _63  and  _64
REMARK   29  A    between atoms: _63  and  _66
REMARK   30  A    between atoms: _66  and  _67
REMARK   31  A    between atoms: _67  and  _68
REMARK   32  A    between atoms: _73  and  _75
REMARK   33  A    between atoms: _75  and  _76
REMARK   34  A    between atoms: _75  and  _78
REMARK   35  A    between atoms: _81  and  _83
REMARK   36  A    between atoms: _83  and  _84
REMARK   37  A    between atoms: _83  and  _86
REMARK   38  A    between atoms: _86  and  _87
REMARK   39  A    between atoms: _90  and  _92
REMARK   40  A    between atoms: _92  and  _93
REMARK   41  A    between atoms: _92  and  _95
REMARK   42  A    between atoms: _95  and  _96
REMARK   43  A    between atoms: _96  and  _97
REMARK   44  A    between atoms: _100  and  _102
REMARK   45  A    between atoms: _102  and  _103
REMARK   46  A    between atoms: _106  and  _108
REMARK   47  A    between atoms: _108  and  _109
REMARK   48  A    between atoms: _108  and  _111
REMARK   49  A    between atoms: _111  and  _112
REMARK   50  A    between atoms: _115  and  _117
REMARK   51  A    between atoms: _117  and  _118
REMARK   52  A    between atoms: _117  and  _120
REMARK   53  A    between atoms: _123  and  _125
REMARK   54  A    between atoms: _125  and  _126
REMARK   55  A    between atoms: _129  and  _131
REMARK   56  A    between atoms: _131  and  _132
REMARK   57  A    between atoms: _131  and  _134
REMARK   58  A    between atoms: _137  and  _139
REMARK   59  A    between atoms: _139  and  _140
REMARK   60  A    between atoms: _139  and  _142
REMARK   61  A    between atoms: _142  and  _143
REMARK   62  A    between atoms: _143  and  _144
REMARK   63  A    between atoms: _144  and  _145
REMARK   64  A    between atoms: _145  and  _146
REMARK   65  A    between atoms: _150  and  _152
REMARK   66  A    between atoms: _152  and  _153
REMARK   67  A    between atoms: _152  and  _155
REMARK   68  A    between atoms: _155  and  _156
REMARK   69  A    between atoms: _156  and  _157
REMARK   70  A    between atoms: _159  and  _161
REMARK   71  A    between atoms: _161  and  _162
REMARK   72  A    between atoms: _161  and  _164
REMARK   73  A    between atoms: _164  and  _165
REMARK   74  A    between atoms: _168  and  _170
REMARK   75  A    between atoms: _170  and  _171
REMARK   76  A    between atoms: _170  and  _173
REMARK   77  A    between atoms: _173  and  _174
REMARK   78  A    between atoms: _174  and  _175
REMARK   79  A    between atoms: _178  and  _180
REMARK   80  A    between atoms: _180  and  _181
REMARK   81  A    between atoms: _180  and  _183
REMARK   82  A    between atoms: _183  and  _184
REMARK   83  A    between atoms: _187  and  _189
REMARK   84  A    between atoms: _189  and  _190
REMARK   85  A    between atoms: _189  and  _192
REMARK   86  A    between atoms: _192  and  _193
REMARK   87  A    between atoms: _196  and  _198
REMARK   88  A    between atoms: _198  and  _199
REMARK   89  A    between atoms: _198  and  _201
REMARK   90  A    between atoms: _201  and  _202
REMARK   91  A    between atoms: _205  and  _207
REMARK   92  A    between atoms: _207  and  _208
REMARK   93  A    between atoms: _207  and  _210
REMARK   94  A    between atoms: _210  and  _211
REMARK   95  A    between atoms: _214  and  _216
REMARK   96  A    between atoms: _216  and  _217
REMARK   97  A    between atoms: _216  and  _219
REMARK   98  A    between atoms: _222  and  _224
REMARK   99  A    between atoms: _224  and  _225
REMARK  100  A    between atoms: _224  and  _227
REMARK  101  A    between atoms: _230  and  _232
REMARK  102  A    between atoms: _232  and  _233
REMARK  103  A    between atoms: _232  and  _235
REMARK  104  A    between atoms: _235  and  _236
REMARK  105  A    between atoms: _241  and  _243
REMARK  106  A    between atoms: _243  and  _244
REMARK  107  A    between atoms: _243  and  _246
REMARK  108  A    between atoms: _246  and  _247
REMARK  109  A    between atoms: _250  and  _252
REMARK  110  A    between atoms: _252  and  _253
REMARK  111  A    between atoms: _252  and  _255
REMARK  112  A    between atoms: _255  and  _256
REMARK  113  A    between atoms: _259  and  _261
REMARK  114  A    between atoms: _261  and  _262
REMARK  115  A    between atoms: _264  and  _266
REMARK  116  A    between atoms: _266  and  _267
REMARK  117  A    between atoms: _266  and  _269
REMARK  118  A    between atoms: _269  and  _270
REMARK  119  A    between atoms: _270  and  _271
REMARK  120  A    between atoms: _273  and  _275
REMARK  121  A    between atoms: _275  and  _276
REMARK  122  A    between atoms: _275  and  _278
REMARK  123  A    between atoms: _281  and  _283
REMARK  124  A    between atoms: _283  and  _284
REMARK  125  A    between atoms: _283  and  _286
REMARK  126  A    between atoms: _286  and  _287
REMARK  127  A    between atoms: _290  and  _292
REMARK  128  A    between atoms: _292  and  _293
REMARK  129  A    between atoms: _292  and  _295
REMARK  130  A    between atoms: _298  and  _300
REMARK  131  A    between atoms: _300  and  _301
REMARK  132  A    between atoms: _300  and  _303
REMARK  133  A    between atoms: _303  and  _304
REMARK  134  A    between atoms: _304  and  _305
REMARK  135  A    between atoms: _308  and  _310
REMARK  136  A    between atoms: _310  and  _311
REMARK  137  A    between atoms: _310  and  _313
REMARK  138  A    between atoms: _313  and  _314
REMARK  139  A    between atoms: _320  and  _322
REMARK  140  A    between atoms: _322  and  _323
REMARK  141  A    between atoms: _322  and  _325
REMARK  142  A    between atoms: _327  and  _329
REMARK  143  A    between atoms: _329  and  _330
REMARK  144  A    between atoms: _329  and  _332
REMARK  145  A    between atoms: _332  and  _333
REMARK  146  A    between atoms: _333  and  _334
REMARK  147  A    between atoms: _334  and  _335
REMARK  148  A    between atoms: _335  and  _336
REMARK  149  A    between atoms: _340  and  _342
REMARK  150  A    between atoms: _342  and  _343
REMARK  151  A    between atoms: _342  and  _345
REMARK  152  A    between atoms: _345  and  _346
REMARK  153  A    between atoms: _352  and  _354
REMARK  154  A    between atoms: _354  and  _355
REMARK  155  A    between atoms: _357  and  _359
REMARK  156  A    between atoms: _359  and  _360
REMARK  157  A    between atoms: _359  and  _362
REMARK  158  A    between atoms: _362  and  _363
REMARK  159  A    between atoms: _368  and  _370
REMARK  160  A    between atoms: _370  and  _371
REMARK  161  A    between atoms: _370  and  _373
REMARK  162  A    between atoms: _373  and  _374
REMARK  163  A    between atoms: _377  and  _379
REMARK  164  A    between atoms: _379  and  _380
REMARK  165  A    between atoms: _379  and  _382
REMARK  166  A    between atoms: _382  and  _383
REMARK  167  A    between atoms: _388  and  _390
REMARK  168  A    between atoms: _390  and  _391
REMARK  169  A    between atoms: _390  and  _393
REMARK  170  A    between atoms: _393  and  _394
REMARK  171  A    between atoms: _394  and  _395
REMARK  172  A    between atoms: _395  and  _396
REMARK  173  A    between atoms: _405  and  _407
REMARK  174  A    between atoms: _407  and  _408
REMARK  175  A    between atoms: _407  and  _410
REMARK  176  A    between atoms: _410  and  _411
REMARK  177  A    between atoms: _416  and  _418
REMARK  178  A    between atoms: _418  and  _419
REMARK  179  A    between atoms: _418  and  _421
REMARK  180  A    between atoms: _421  and  _422
REMARK  181  A    between atoms: _425  and  _427
REMARK  182  A    between atoms: _427  and  _428
REMARK  183  A    between atoms: _427  and  _430
REMARK  184  A    between atoms: _430  and  _431
REMARK  185  A    between atoms: _434  and  _436
REMARK  186  A    between atoms: _436  and  _437
REMARK  187  A    between atoms: _436  and  _439
REMARK  188  A    between atoms: _439  and  _440
REMARK  189  A    between atoms: _443  and  _445
REMARK  190  A    between atoms: _445  and  _446
REMARK  191  A    between atoms: _445  and  _448
REMARK  192  A    between atoms: _448  and  _449
REMARK  193  A    between atoms: _451  and  _453
REMARK  194  A    between atoms: _453  and  _454
REMARK  195  A    between atoms: _453  and  _456
REMARK  196  A    between atoms: _456  and  _457
REMARK  197  A    between atoms: _457  and  _458
REMARK  198  A    between atoms: _458  and  _459
REMARK  199  A    between atoms: _459  and  _460
REMARK  200  A    between atoms: _464  and  _466
REMARK  201  A    between atoms: _466  and  _467
REMARK  202  A    between atoms: _466  and  _469
REMARK  203  A    between atoms: _469  and  _470
REMARK  204  A    between atoms: _473  and  _475
REMARK  205  A    between atoms: _475  and  _476
REMARK  206  A    between atoms: _475  and  _478
REMARK  207  A    between atoms: _480  and  _482
REMARK  208  A    between atoms: _482  and  _483
REMARK  209  A    between atoms: _482  and  _485
REMARK  210  A    between atoms: _485  and  _486
REMARK  211  A    between atoms: _489  and  _491
REMARK  212  A    between atoms: _491  and  _492
REMARK  213  A    between atoms: _491  and  _494
REMARK  214  A    between atoms: _494  and  _495
REMARK  215  A    between atoms: _501  and  _503
REMARK  216  A    between atoms: _503  and  _504
REMARK  217  A    between atoms: _506  and  _508
REMARK  218  A    between atoms: _508  and  _509
REMARK  219  A    between atoms: _508  and  _511
REMARK  220  A    between atoms: _511  and  _512
REMARK  221  A    between atoms: _515  and  _517
REMARK  222  A    between atoms: _517  and  _518
REMARK  223  A    between atoms: _521  and  _523
REMARK  224  A    between atoms: _523  and  _524
REMARK  225  A    between atoms: _523  and  _526
REMARK  226  A    between atoms: _526  and  _527
REMARK  227  A    between atoms: _527  and  _528
REMARK  228  A    between atoms: _528  and  _529
REMARK                            x       y       z     vdW  Elec       q    Type
REMARK                         _______ _______ _______ _____ _____    ______ ____
ROOT
ATOM      1  CA  ILE A   1     -36.074   0.721  -3.497  0.00  0.00    +0.133 C 
ENDROOT
BRANCH   1   2
ATOM      2  N   ILE A   1     -36.929  -0.125  -4.321  0.00  0.00    -0.239 NA
ATOM      3  H   ILE A   1     -36.499  -0.752  -5.031  0.00  0.00    +0.142 HD
ENDBRANCH   1   2
BRANCH   1   4
ATOM      4  CB  ILE A   1     -34.571   0.392  -3.738  0.00  0.00    +0.023 C 
ATOM      5  CG2 ILE A   1     -33.683   1.470  -3.140  0.00  0.00    +0.002 C 
BRANCH   4   6
ATOM      6  CG1 ILE A   1     -34.234  -0.964  -3.101  0.00  0.00    +0.002 C 
ATOM      7  CD1 ILE A   1     -32.855  -1.495  -3.447  0.00  0.00    +0.000 C 
ENDBRANCH   4   6
ENDBRANCH   1   4
BRANCH   1   8
ATOM      8  C   ILE A   1     -36.340   2.204  -3.751  0.00  0.00    +0.224 C 
ATOM      9  O   ILE A   1     -36.428   2.998  -2.813  0.00  0.00    -0.287 OA
ENDBRANCH   1   8
TORSDOF 4
REMARK  Name = ../refined-set-2016/4agc/4agc_pocket.pdb
REMARK  228 active torsions:
REMARK  status: ('A' for Active; 'I' for Inactive)
REMARK    1  A    between atoms: _1  and  _3
REMARK    2  A    between atoms: _3  and  _4
REMARK    3  A    between atoms: _3  and  _6
REMARK    4  A    between atoms: _6  and  _7
REMARK    5  A    between atoms: _10  and  _12
REMARK    6  A    between atoms: _12  and  _13
REMARK    7  A    between atoms: _12  and  _15
REMARK    8  A    between atoms: _15  and  _16
REMARK    9  A    between atoms: _18  and  _20
REMARK   10  A    between atoms: _20  and  _21
REMARK   11  A    between atoms: _20  and  _23
REMARK   12  A    between atoms: _23  and  _24
REMARK   13  A    between atoms: _27  and  _29
REMARK   14  A    between atoms: _29  and  _30
REMARK   15  A    between atoms: _29  and  _32
REMARK   16  A    between atoms: _32  and  _33
REMARK   17  A    between atoms: _33  and  _34
REMARK   18  A    between atoms: _34  and  _35
REMARK   19  A    between atoms: _35  and  _36
REMARK   20  A    between atoms: _41  and  _42
REMARK   21  A    between atoms: _47  and  _49
REMARK   22  A    between atoms: _49  and  _50
REMARK   23  A    between atoms: _49  and  _52
REMARK   24  A    between atoms: _52  and  _53
REMARK   25  A    between atoms: _56  and  _58
REMARK   26  A    between atoms: _58  and  _59
REMARK   27  A    between atoms: _61  and  _63
REMARK   28  A    between atoms: _63  and  _64
REMARK   29  A    between atoms: _63  and  _66
REMARK   30  A    between atoms: _66  and  _67
REMARK   31  A    between atoms: _67  and  _68
REMARK   32  A    between atoms: _73  and  _75
REMARK   33  A    between atoms: _75  and  _76
REMARK   34  A    between atoms: _75  and  _78
REMARK   35  A    between atoms: _81  and  _83
REMARK   36  A    between atoms: _83  and  _84
REMARK   37  A    between atoms: _83  and  _86
REMARK   38  A    between atoms: _86  and  _87
REMARK   39  A    between atoms: _90  and  _92
REMARK   40  A    between atoms: _92  and  _93
REMARK   41  A    between atoms: _92  and  _95
REMARK   42  A    between atoms: _95  and  _96
REMARK   43  A    between atoms: _96  and  _97
REMARK   44  A    between atoms: _100  and  _102
REMARK   45  A    between atoms: _102  and  _103
REMARK   46  A    between atoms: _106  and  _108
REMARK   47  A    between atoms: _108  and  _109
REMARK   48  A    between atoms: _108  and  _111
REMARK   49  A    between atoms: _111  and  _112
REMARK   50  A    between atoms: _115  and  _117
REMARK   51  A    between atoms: _117  and  _118
REMARK   52  A    between atoms: _117  and  _120
REMARK   53  A    between atoms: _123  and  _125
REMARK   54  A    between atoms: _125  and  _126
REMARK   55  A    between atoms: _129  and  _131
REMARK   56  A    between atoms: _131  and  _132
REMARK   57  A    between atoms: _131  and  _134
REMARK   58  A    between atoms: _137  and  _139
REMARK   59  A    between atoms: _139  and  _140
REMARK   60  A    between atoms: _139  and  _142
REMARK   61  A    between atoms: _142  and  _143
REMARK   62  A    between atoms: _143  and  _144
REMARK   63  A    between atoms: _144  and  _145
REMARK   64  A    between atoms: _145  and  _146
REMARK   65  A    between atoms: _150  and  _152
REMARK   66  A    between atoms: _152  and  _153
REMARK   67  A    between atoms: _152  and  _155
REMARK   68  A    between atoms: _155  and  _156
REMARK   69  A    between atoms: _156  and  _157
REMARK   70  A    between atoms: _159  and  _161
REMARK   71  A    between atoms: _161  and  _162
REMARK   72  A    between atoms: _161  and  _164
REMARK   73  A    between atoms: _164  and  _165
REMARK   74  A    between atoms: _168  and  _170
REMARK   75  A    between atoms: _170  and  _171
REMARK   76  A    between atoms: _170  and  _173
REMARK   77  A    between atoms: _173  and  _174
REMARK   78  A    between atoms: _174  and  _175
REMARK   79  A    between atoms: _178  and  _180
REMARK   80  A    between atoms: _180  and  _181
REMARK   81  A    between atoms: _180  and  _183
REMARK   82  A    between atoms: _183  and  _184
REMARK   83  A    between atoms: _187  and  _189
REMARK   84  A    between atoms: _189  and  _190
REMARK   85  A    between atoms: _189  and  _192
REMARK   86  A    between atoms: _192  and  _193
REMARK   87  A    between atoms: _196  and  _198
REMARK   88  A    between atoms: _198  and  _199
REMARK   89  A    between atoms: _198  and  _201
REMARK   90  A    between atoms: _201  and  _202
REMARK   91  A    between atoms: _205  and  _207
REMARK   92  A    between atoms: _207  and  _208
REMARK   93  A    between atoms: _207  and  _210
REMARK   94  A    between atoms: _210  and  _211
REMARK   95  A    between atoms: _214  and  _216
REMARK   96  A    between atoms: _216  and  _217
REMARK   97  A    between atoms: _216  and  _219
REMARK   98  A    between atoms: _222  and  _224
REMARK   99  A    between atoms: _224  and  _225
REMARK  100  A    between atoms: _224  and  _227
REMARK  101  A    between atoms: _230  and  _232
REMARK  102  A    between atoms: _232  and  _233
REMARK  103  A    between atoms: _232  and  _235
REMARK  104  A    between atoms: _235  and  _236
REMARK  105  A    between atoms: _241  and  _243
REMARK  106  A    between atoms: _243  and  _244
REMARK  107  A    between atoms: _243  and  _246
REMARK  108  A    between atoms: _246  and  _247
REMARK  109  A    between atoms: _250  and  _252
REMARK  110  A    between atoms: _252  and  _253
REMARK  111  A    between atoms: _252  and  _255
REMARK  112  A    between atoms: _255  and  _256
REMARK  113  A    between atoms: _259  and  _261
REMARK  114  A    between atoms: _261  and  _262
REMARK  115  A    between atoms: _264  and  _266
REMARK  116  A    between atoms: _266  and  _267
REMARK  117  A    between atoms: _266  and  _269
REMARK  118  A    between atoms: _269  and  _270
REMARK  119  A    between atoms: _270  and  _271
REMARK  120  A    between atoms: _273  and  _275
REMARK  121  A    between atoms: _275  and  _276
REMARK  122  A    between atoms: _275  and  _278
REMARK  123  A    between atoms: _281  and  _283
REMARK  124  A    between atoms: _283  and  _284
REMARK  125  A    between atoms: _283  and  _286
REMARK  126  A    between atoms: _286  and  _287
REMARK  127  A    between atoms: _290  and  _292
REMARK  128  A    between atoms: _292  and  _293
REMARK  129  A    between atoms: _292  and  _295
REMARK  130  A    between atoms: _298  and  _300
REMARK  131  A    between atoms: _300  and  _301
REMARK  132  A    between atoms: _300  and  _303
REMARK  133  A    between atoms: _303  and  _304
REMARK  134  A    between atoms: _304  and  _305
REMARK  135  A    between atoms: _308  and  _310
REMARK  136  A    between atoms: _310  and  _311
REMARK  137  A    between atoms: _310  and  _313
REMARK  138  A    between atoms: _313  and  _314
REMARK  139  A    between atoms: _320  and  _322
REMARK  140  A    between atoms: _322  and  _323
REMARK  141  A    between atoms: _322  and  _325
REMARK  142  A    between atoms: _327  and  _329
REMARK  143  A    between atoms: _329  and  _330
REMARK  144  A    between atoms: _329  and  _332
REMARK  145  A    between atoms: _332  and  _333
REMARK  146  A    between atoms: _333  and  _334
REMARK  147  A    between atoms: _334  and  _335
REMARK  148  A    between atoms: _335  and  _336
REMARK  149  A    between atoms: _340  and  _342
REMARK  150  A    between atoms: _342  and  _343
REMARK  151  A    between atoms: _342  and  _345
REMARK  152  A    between atoms: _345  and  _346
REMARK  153  A    between atoms: _352  and  _354
REMARK  154  A    between atoms: _354  and  _355
REMARK  155  A    between atoms: _357  and  _359
REMARK  156  A    between atoms: _359  and  _360
REMARK  157  A    between atoms: _359  and  _362
REMARK  158  A    between atoms: _362  and  _363
REMARK  159  A    between atoms: _368  and  _370
REMARK  160  A    between atoms: _370  and  _371
REMARK  161  A    between atoms: _370  and  _373
REMARK  162  A    between atoms: _373  and  _374
REMARK  163  A    between atoms: _377  and  _379
REMARK  164  A    between atoms: _379  and  _380
REMARK  165  A    between atoms: _379  and  _382
REMARK  166  A    between atoms: _382  and  _383
REMARK  167  A    between atoms: _388  and  _390
REMARK  168  A    between atoms: _390  and  _391
REMARK  169  A    between atoms: _390  and  _393
REMARK  170  A    between atoms: _393  and  _394
REMARK  171  A    between atoms: _394  and  _395
REMARK  172  A    between atoms: _395  and  _396
REMARK  173  A    between atoms: _405  and  _407
REMARK  174  A    between atoms: _407  and  _408
REMARK  175  A    between atoms: _407  and  _410
REMARK  176  A    between atoms: _410  and  _411
REMARK  177  A    between atoms: _416  and  _418
REMARK  178  A    between atoms: _418  and  _419
REMARK  179  A    between atoms: _418  and  _421
REMARK  180  A    between atoms: _421  and  _422
REMARK  181  A    between atoms: _425  and  _427
REMARK  182  A    between atoms: _427  and  _428
REMARK  183  A    between atoms: _427  and  _430
REMARK  184  A    between atoms: _430  and  _431
REMARK  185  A    between atoms: _434  and  _436
REMARK  186  A    between atoms: _436  and  _437
REMARK  187  A    between atoms: _436  and  _439
REMARK  188  A    between atoms: _439  and  _440
REMARK  189  A    between atoms: _443  and  _445
REMARK  190  A    between atoms: _445  and  _446
REMARK  191  A    between atoms: _445  and  _448
REMARK  192  A    between atoms: _448  and  _449
REMARK  193  A    between atoms: _451  and  _453
REMARK  194  A    between atoms: _453  and  _454
REMARK  195  A    between atoms: _453  and  _456
REMARK  196  A    between atoms: _456  and  _457
REMARK  197  A    between atoms: _457  and  _458
REMARK  198  A    between atoms: _458  and  _459
REMARK  199  A    between atoms: _459  and  _460
REMARK  200  A    between atoms: _464  and  _466
REMARK  201  A    between atoms: _466  and  _467
REMARK  202  A    between atoms: _466  and  _469
REMARK  203  A    between atoms: _469  and  _470
REMARK  204  A    between atoms: _473  and  _475
REMARK  205  A    between atoms: _475  and  _476
REMARK  206  A    between atoms: _475  and  _478
REMARK  207  A    between atoms: _480  and  _482
REMARK  208  A    between atoms: _482  and  _483
REMARK  209  A    between atoms: _482  and  _485
REMARK  210  A    between atoms: _485  and  _486
REMARK  211  A    between atoms: _489  and  _491
REMARK  212  A    between atoms: _491  and  _492
REMARK  213  A    between atoms: _491  and  _494
REMARK  214  A    between atoms: _494  and  _495
REMARK  215  A    between atoms: _501  and  _503
REMARK  216  A    between atoms: _503  and  _504
REMARK  217  A    between atoms: _506  and  _508
REMARK  218  A    between atoms: _508  and  _509
REMARK  219  A    between atoms: _508  and  _511
REMARK  220  A    between atoms: _511  and  _512
REMARK  221  A    between atoms: _515  and  _517
REMARK  222  A    between atoms: _517  and  _518
REMARK  223  A    between atoms: _521  and  _523
REMARK  224  A    between atoms: _523  and  _524
REMARK  225  A    between atoms: _523  and  _526
REMARK  226  A    between atoms: _526  and  _527
REMARK  227  A    between atoms: _527  and  _528
REMARK  228  A    between atoms: _528  and  _529
REMARK                            x       y       z     vdW  Elec       q    Type
REMARK                         _______ _______ _______ _____ _____    ______ ____
ROOT
ATOM      1  CA  ASN A   3     -30.463   5.437  -9.799  0.00  0.00    +0.158 C 
ENDROOT
BRANCH   1   4
ATOM      2  C   VAL A   2     -28.719   4.202  -8.634  0.00  0.00    +0.241 C 
ATOM      3  O   VAL A   2     -29.514   3.362  -8.207  0.00  0.00    -0.273 OA
ATOM      4  N   ASN A   3     -29.064   5.145  -9.503  0.00  0.00    -0.297 N 
ATOM      5  H   ASN A   3     -28.319   5.689  -9.984  0.00  0.00    +0.150 HD
BRANCH   2   6
ATOM      6  CA  VAL A   2     -27.273   4.242  -8.132  0.00  0.00    +0.148 C 
BRANCH   6   9
ATOM      7  C   VAL A   1     -27.983   4.910  -5.948  0.00  0.00    +0.238 C 
ATOM      8  O   VAL A   1     -28.667   5.810  -6.430  0.00  0.00    -0.274 OA
ATOM      9  N   VAL A   2     -27.314   4.047  -6.700  0.00  0.00    -0.297 N 
ATOM     10  H   VAL A   2     -26.824   3.239  -6.265  0.00  0.00    +0.150 HD
BRANCH   7  11
ATOM     11  CA  VAL A   1     -27.852   4.766  -4.437  0.00  0.00    +0.145 C 
BRANCH  11  12
ATOM     12  CB  VAL A   1     -29.104   4.048  -3.881  0.00  0.00    +0.025 C 
ATOM     13  CG2 VAL A   1     -28.968   3.854  -2.380  0.00  0.00    +0.002 C 
ATOM     14  CG1 VAL A   1     -29.284   2.705  -4.566  0.00  0.00    +0.002 C 
ENDBRANCH  11  12
BRANCH  11  15
ATOM     15  N   VAL A   1     -27.715   6.113  -3.887  0.00  0.00    -0.238 NA
ATOM     16  H   VAL A   1     -28.407   6.842  -4.155  0.00  0.00    +0.142 HD
ENDBRANCH  11  15
ENDBRANCH   7  11
ENDBRANCH   6   9
BRANCH   6  17
ATOM     17  CB  VAL A   2     -26.390   3.164  -8.826  0.00  0.00    +0.027 C 
ATOM     18  CG2 VAL A   2     -27.091   1.811  -8.835  0.00  0.00    +0.002 C 
ATOM     19  CG1 VAL A   2     -26.038   3.620 -10.231  0.00  0.00    +0.002 C 
ENDBRANCH   6  17
ENDBRANCH   2   6
ENDBRANCH   1   4
BRANCH   1  20
ATOM     20  C   ASN A   3     -30.950   4.728 -11.057  0.00  0.00    +0.241 C 
ATOM     21  N   LEU A   4     -32.032   3.973 -10.916  0.00  0.00    -0.297 N 
ATOM     22  H   LEU A   4     -32.452   3.869  -9.970  0.00  0.00    +0.150 HD
ATOM     23  O   ASN A   3     -30.366   4.869 -12.125  0.00  0.00    -0.273 OA
BRANCH  21  24
ATOM     24  CA  LEU A   4     -32.653   3.284 -12.042  0.00  0.00    +0.149 C 
BRANCH  24  25
ATOM     25  C   LEU A   4     -33.290   4.293 -12.985  0.00  0.00    +0.241 C 
ATOM     26  O   LEU A   4     -34.023   5.178 -12.549  0.00  0.00    -0.273 OA
ATOM     27  N   LEU A   5     -33.008   4.160 -14.275  0.00  0.00    -0.297 N 
ATOM     28  H   LEU A   5     -32.406   3.372 -14.588  0.00  0.00    +0.150 HD
BRANCH  27  29
ATOM     29  CA  LEU A   5     -33.527   5.099 -15.260  0.00  0.00    +0.149 C 
BRANCH  29  30
ATOM     30  C   LEU A   5     -34.526   4.450 -16.216  0.00  0.00    +0.241 C 
ATOM     31  N   GLY A   6     -34.443   3.132 -16.361  0.00  0.00    -0.296 N 
ATOM     32  H   GLY A   6     -33.743   2.594 -15.812  0.00  0.00    +0.150 HD
ATOM     33  O   LEU A   5     -35.342   5.137 -16.827  0.00  0.00    -0.273 OA
BRANCH  31  34
ATOM     34  CA  GLY A   6     -35.326   2.441 -17.282  0.00  0.00    +0.163 C 
BRANCH  34  35
ATOM     35  C   GLY A   6     -34.873   1.026 -17.555  0.00  0.00    +0.229 C 
ATOM     36  O   GLY A   6     -33.837   0.578 -17.043  0.00  0.00    -0.286 OA
ENDBRANCH  34  35
ENDBRANCH  31  34
ENDBRANCH  29  30
BRANCH  29  37
ATOM     37  CB  LEU A   5     -32.379   5.707 -16.066  0.00  0.00    +0.029 C 
BRANCH  37  38
ATOM     38  CG  LEU A   5     -31.321   6.475 -15.268  0.00  0.00    +0.002 C 
ATOM     39  CD2 LEU A   5     -31.967   7.686 -14.589  0.00  0.00    +0.000 C 
ATOM     40  CD1 LEU A   5     -30.197   6.908 -16.198  0.00  0.00    +0.000 C 
ENDBRANCH  37  38
ENDBRANCH  29  37
ENDBRANCH  27  29
ENDBRANCH  24  25
BRANCH  24  41
ATOM     41  CB  LEU A   4     -33.722   2.314 -11.537  0.00  0.00    +0.029 C 
BRANCH  41  42
ATOM     42  CG  LEU A   4     -34.546   1.586 -12.600  0.00  0.00    +0.002 C 
ATOM     43  CD2 LEU A   4     -35.650   0.794 -11.919  0.00  0.00    +0.000 C 
ATOM     44  CD1 LEU A   4     -33.649   0.666 -13.418  0.00  0.00    +0.000 C 
ENDBRANCH  41  42
ENDBRANCH  24  41
ENDBRANCH  21  24
ENDBRANCH   1  20
BRANCH   1  45
ATOM     45  CB  ASN A   3     -30.652   6.947  -9.961  0.00  0.00    +0.114 C 
BRANCH  45  46
ATOM     46  CG  ASN A   3     -32.095   7.369  -9.826  0.00  0.00    +0.222 C 
ATOM     47  ND2 ASN A   3     -32.729   6.966  -8.733  0.00  0.00    -0.329 N 
ATOM     48 HD21 ASN A   3     -32.231   6.389  -8.026  0.00  0.00    +0.145 HD
ATOM     49 HD22 ASN A   3     -33.724   7.227  -8.583  0.00  0.00    +0.145 HD
ATOM     50  OD1 ASN A   3     -32.637   8.053 -10.693  0.00  0.00    -0.275 OA
ENDBRANCH  45  46
ENDBRANCH   1  45
TORSDOF 20
REMARK  Name = ../refined-set-2016/4agc/4agc_pocket.pdb
REMARK  228 active torsions:
REMARK  status: ('A' for Active; 'I' for Inactive)
REMARK    1  A    between atoms: _1  and  _3
REMARK    2  A    between atoms: _3  and  _4
REMARK    3  A    between atoms: _3  and  _6
REMARK    4  A    between atoms: _6  and  _7
REMARK    5  A    between atoms: _10  and  _12
REMARK    6  A    between atoms: _12  and  _13
REMARK    7  A    between atoms: _12  and  _15
REMARK    8  A    between atoms: _15  and  _16
REMARK    9  A    between atoms: _18  and  _20
REMARK   10  A    between atoms: _20  and  _21
REMARK   11  A    between atoms: _20  and  _23
REMARK   12  A    between atoms: _23  and  _24
REMARK   13  A    between atoms: _27  and  _29
REMARK   14  A    between atoms: _29  and  _30
REMARK   15  A    between atoms: _29  and  _32
REMARK   16  A    between atoms: _32  and  _33
REMARK   17  A    between atoms: _33  and  _34
REMARK   18  A    between atoms: _34  and  _35
REMARK   19  A    between atoms: _35  and  _36
REMARK   20  A    between atoms: _41  and  _42
REMARK   21  A    between atoms: _47  and  _49
REMARK   22  A    between atoms: _49  and  _50
REMARK   23  A    between atoms: _49  and  _52
REMARK   24  A    between atoms: _52  and  _53
REMARK   25  A    between atoms: _56  and  _58
REMARK   26  A    between atoms: _58  and  _59
REMARK   27  A    between atoms: _61  and  _63
REMARK   28  A    between atoms: _63  and  _64
REMARK   29  A    between atoms: _63  and  _66
REMARK   30  A    between atoms: _66  and  _67
REMARK   31  A    between atoms: _67  and  _68
REMARK   32  A    between atoms: _73  and  _75
REMARK   33  A    between atoms: _75  and  _76
REMARK   34  A    between atoms: _75  and  _78
REMARK   35  A    between atoms: _81  and  _83
REMARK   36  A    between atoms: _83  and  _84
REMARK   37  A    between atoms: _83  and  _86
REMARK   38  A    between atoms: _86  and  _87
REMARK   39  A    between atoms: _90  and  _92
REMARK   40  A    between atoms: _92  and  _93
REMARK   41  A    between atoms: _92  and  _95
REMARK   42  A    between atoms: _95  and  _96
REMARK   43  A    between atoms: _96  and  _97
REMARK   44  A    between atoms: _100  and  _102
REMARK   45  A    between atoms: _102  and  _103
REMARK   46  A    between atoms: _106  and  _108
REMARK   47  A    between atoms: _108  and  _109
REMARK   48  A    between atoms: _108  and  _111
REMARK   49  A    between atoms: _111  and  _112
REMARK   50  A    between atoms: _115  and  _117
REMARK   51  A    between atoms: _117  and  _118
REMARK   52  A    between atoms: _117  and  _120
REMARK   53  A    between atoms: _123  and  _125
REMARK   54  A    between atoms: _125  and  _126
REMARK   55  A    between atoms: _129  and  _131
REMARK   56  A    between atoms: _131  and  _132
REMARK   57  A    between atoms: _131  and  _134
REMARK   58  A    between atoms: _137  and  _139
REMARK   59  A    between atoms: _139  and  _140
REMARK   60  A    between atoms: _139  and  _142
REMARK   61  A    between atoms: _142  and  _143
REMARK   62  A    between atoms: _143  and  _144
REMARK   63  A    between atoms: _144  and  _145
REMARK   64  A    between atoms: _145  and  _146
REMARK   65  A    between atoms: _150  and  _152
REMARK   66  A    between atoms: _152  and  _153
REMARK   67  A    between atoms: _152  and  _155
REMARK   68  A    between atoms: _155  and  _156
REMARK   69  A    between atoms: _156  and  _157
REMARK   70  A    between atoms: _159  and  _161
REMARK   71  A    between atoms: _161  and  _162
REMARK   72  A    between atoms: _161  and  _164
REMARK   73  A    between atoms: _164  and  _165
REMARK   74  A    between atoms: _168  and  _170
REMARK   75  A    between atoms: _170  and  _171
REMARK   76  A    between atoms: _170  and  _173
REMARK   77  A    between atoms: _173  and  _174
REMARK   78  A    between atoms: _174  and  _175
REMARK   79  A    between atoms: _178  and  _180
REMARK   80  A    between atoms: _180  and  _181
REMARK   81  A    between atoms: _180  and  _183
REMARK   82  A    between atoms: _183  and  _184
REMARK   83  A    between atoms: _187  and  _189
REMARK   84  A    between atoms: _189  and  _190
REMARK   85  A    between atoms: _189  and  _192
REMARK   86  A    between atoms: _192  and  _193
REMARK   87  A    between atoms: _196  and  _198
REMARK   88  A    between atoms: _198  and  _199
REMARK   89  A    between atoms: _198  and  _201
REMARK   90  A    between atoms: _201  and  _202
REMARK   91  A    between atoms: _205  and  _207
REMARK   92  A    between atoms: _207  and  _208
REMARK   93  A    between atoms: _207  and  _210
REMARK   94  A    between atoms: _210  and  _211
REMARK   95  A    between atoms: _214  and  _216
REMARK   96  A    between atoms: _216  and  _217
REMARK   97  A    between atoms: _216  and  _219
REMARK   98  A    between atoms: _222  and  _224
REMARK   99  A    between atoms: _224  and  _225
REMARK  100  A    between atoms: _224  and  _227
REMARK  101  A    between atoms: _230  and  _232
REMARK  102  A    between atoms: _232  and  _233
REMARK  103  A    between atoms: _232  and  _235
REMARK  104  A    between atoms: _235  and  _236
REMARK  105  A    between atoms: _241  and  _243
REMARK  106  A    between atoms: _243  and  _244
REMARK  107  A    between atoms: _243  and  _246
REMARK  108  A    between atoms: _246  and  _247
REMARK  109  A    between atoms: _250  and  _252
REMARK  110  A    between atoms: _252  and  _253
REMARK  111  A    between atoms: _252  and  _255
REMARK  112  A    between atoms: _255  and  _256
REMARK  113  A    between atoms: _259  and  _261
REMARK  114  A    between atoms: _261  and  _262
REMARK  115  A    between atoms: _264  and  _266
REMARK  116  A    between atoms: _266  and  _267
REMARK  117  A    between atoms: _266  and  _269
REMARK  118  A    between atoms: _269  and  _270
REMARK  119  A    between atoms: _270  and  _271
REMARK  120  A    between atoms: _273  and  _275
REMARK  121  A    between atoms: _275  and  _276
REMARK  122  A    between atoms: _275  and  _278
REMARK  123  A    between atoms: _281  and  _283
REMARK  124  A    between atoms: _283  and  _284
REMARK  125  A    between atoms: _283  and  _286
REMARK  126  A    between atoms: _286  and  _287
REMARK  127  A    between atoms: _290  and  _292
REMARK  128  A    between atoms: _292  and  _293
REMARK  129  A    between atoms: _292  and  _295
REMARK  130  A    between atoms: _298  and  _300
REMARK  131  A    between atoms: _300  and  _301
REMARK  132  A    between atoms: _300  and  _303
REMARK  133  A    between atoms: _303  and  _304
REMARK  134  A    between atoms: _304  and  _305
REMARK  135  A    between atoms: _308  and  _310
REMARK  136  A    between atoms: _310  and  _311
REMARK  137  A    between atoms: _310  and  _313
REMARK  138  A    between atoms: _313  and  _314
REMARK  139  A    between atoms: _320  and  _322
REMARK  140  A    between atoms: _322  and  _323
REMARK  141  A    between atoms: _322  and  _325
REMARK  142  A    between atoms: _327  and  _329
REMARK  143  A    between atoms: _329  and  _330
REMARK  144  A    between atoms: _329  and  _332
REMARK  145  A    between atoms: _332  and  _333
REMARK  146  A    between atoms: _333  and  _334
REMARK  147  A    between atoms: _334  and  _335
REMARK  148  A    between atoms: _335  and  _336
REMARK  149  A    between atoms: _340  and  _342
REMARK  150  A    between atoms: _342  and  _343
REMARK  151  A    between atoms: _342  and  _345
REMARK  152  A    between atoms: _345  and  _346
REMARK  153  A    between atoms: _352  and  _354
REMARK  154  A    between atoms: _354  and  _355
REMARK  155  A    between atoms: _357  and  _359
REMARK  156  A    between atoms: _359  and  _360
REMARK  157  A    between atoms: _359  and  _362
REMARK  158  A    between atoms: _362  and  _363
REMARK  159  A    between atoms: _368  and  _370
REMARK  160  A    between atoms: _370  and  _371
REMARK  161  A    between atoms: _370  and  _373
REMARK  162  A    between atoms: _373  and  _374
REMARK  163  A    between atoms: _377  and  _379
REMARK  164  A    between atoms: _379  and  _380
REMARK  165  A    between atoms: _379  and  _382
REMARK  166  A    between atoms: _382  and  _383
REMARK  167  A    between atoms: _388  and  _390
REMARK  168  A    between atoms: _390  and  _391
REMARK  169  A    between atoms: _390  and  _393
REMARK  170  A    between atoms: _393  and  _394
REMARK  171  A    between atoms: _394  and  _395
REMARK  172  A    between atoms: _395  and  _396
REMARK  173  A    between atoms: _405  and  _407
REMARK  174  A    between atoms: _407  and  _408
REMARK  175  A    between atoms: _407  and  _410
REMARK  176  A    between atoms: _410  and  _411
REMARK  177  A    between atoms: _416  and  _418
REMARK  178  A    between atoms: _418  and  _419
REMARK  179  A    between atoms: _418  and  _421
REMARK  180  A    between atoms: _421  and  _422
REMARK  181  A    between atoms: _425  and  _427
REMARK  182  A    between atoms: _427  and  _428
REMARK  183  A    between atoms: _427  and  _430
REMARK  184  A    between atoms: _430  and  _431
REMARK  185  A    between atoms: _434  and  _436
REMARK  186  A    between atoms: _436  and  _437
REMARK  187  A    between atoms: _436  and  _439
REMARK  188  A    between atoms: _439  and  _440
REMARK  189  A    between atoms: _443  and  _445
REMARK  190  A    between atoms: _445  and  _446
REMARK  191  A    between atoms: _445  and  _448
REMARK  192  A    between atoms: _448  and  _449
REMARK  193  A    between atoms: _451  and  _453
REMARK  194  A    between atoms: _453  and  _454
REMARK  195  A    between atoms: _453  and  _456
REMARK  196  A    between atoms: _456  and  _457
REMARK  197  A    between atoms: _457  and  _458
REMARK  198  A    between atoms: _458  and  _459
REMARK  199  A    between atoms: _459  and  _460
REMARK  200  A    between atoms: _464  and  _466
REMARK  201  A    between atoms: _466  and  _467
REMARK  202  A    between atoms: _466  and  _469
REMARK  203  A    between atoms: _469  and  _470
REMARK  204  A    between atoms: _473  and  _475
REMARK  205  A    between atoms: _475  and  _476
REMARK  206  A    between atoms: _475  and  _478
REMARK  207  A    between atoms: _480  and  _482
REMARK  208  A    between atoms: _482  and  _483
REMARK  209  A    between atoms: _482  and  _485
REMARK  210  A    between atoms: _485  and  _486
REMARK  211  A    between atoms: _489  and  _491
REMARK  212  A    between atoms: _491  and  _492
REMARK  213  A    between atoms: _491  and  _494
REMARK  214  A    between atoms: _494  and  _495
REMARK  215  A    between atoms: _501  and  _503
REMARK  216  A    between atoms: _503  and  _504
REMARK  217  A    between atoms: _506  and  _508
REMARK  218  A    between atoms: _508  and  _509
REMARK  219  A    between atoms: _508  and  _511
REMARK  220  A    between atoms: _511  and  _512
REMARK  221  A    between atoms: _515  and  _517
REMARK  222  A    between atoms: _517  and  _518
REMARK  223  A    between atoms: _521  and  _523
REMARK  224  A    between atoms: _523  and  _524
REMARK  225  A    between atoms: _523  and  _526
REMARK  226  A    between atoms: _526  and  _527
REMARK  227  A    between atoms: _527  and  _528
REMARK  228  A    between atoms: _528  and  _529
REMARK                            x       y       z     vdW  Elec       q    Type
REMARK                         _______ _______ _______ _____ _____    ______ ____
ROOT
ATOM      1  CA  PHE A   6     -23.498   6.536 -15.196  0.00  0.00    +0.153 C 
ENDROOT
BRANCH   1   2
ATOM      2  C   PHE A   6     -22.704   7.386 -14.201  0.00  0.00    +0.241 C 
ATOM      3  N   CYS A   7     -21.729   6.759 -13.556  0.00  0.00    -0.296 N 
ATOM      4  H   CYS A   7     -21.555   5.754 -13.758  0.00  0.00    +0.150 HD
ATOM      5  O   PHE A   6     -22.979   8.575 -14.012  0.00  0.00    -0.273 OA
BRANCH   3   6
ATOM      6  CA  CYS A   7     -20.895   7.438 -12.572  0.00  0.00    +0.160 C 
BRANCH   6   7
ATOM      7  C   CYS A   7     -19.481   7.497 -13.116  0.00  0.00    +0.242 C 
ATOM      8  O   CYS A   7     -18.773   6.496 -13.122  0.00  0.00    -0.273 OA
ATOM      9  N   LYS A   8     -19.078   8.680 -13.572  0.00  0.00    -0.297 N 
ATOM     10  H   LYS A   8     -19.576   9.542 -13.271  0.00  0.00    +0.150 HD
BRANCH   9  11
ATOM     11  CA  LYS A   8     -17.950   8.786 -14.486  0.00  0.00    +0.149 C 
BRANCH  11  12
ATOM     12  C   LYS A   8     -16.602   8.365 -13.912  0.00  0.00    +0.241 C 
ATOM     13  N   PHE A   9     -16.465   8.334 -12.592  0.00  0.00    -0.297 N 
ATOM     14  H   PHE A   9     -17.273   8.556 -11.976  0.00  0.00    +0.150 HD
ATOM     15  O   LYS A   8     -15.685   8.071 -14.672  0.00  0.00    -0.273 OA
BRANCH  13  16
ATOM     16  CA  PHE A   9     -15.166   7.984 -12.011  0.00  0.00    +0.153 C 
BRANCH  16  17
ATOM     17  C   PHE A   9     -15.019   6.517 -11.610  0.00  0.00    +0.241 C 
ATOM     18  O   PHE A   9     -13.970   6.103 -11.124  0.00  0.00    -0.273 OA
ATOM     19  N   GLY A  10     -16.064   5.728 -11.824  0.00  0.00    -0.295 N 
ATOM     20  H   GLY A  10     -16.951   6.127 -12.193  0.00  0.00    +0.150 HD
BRANCH  19  21
ATOM     21  CA  GLY A  10     -15.967   4.308 -11.542  0.00  0.00    +0.176 C 
BRANCH  21  22
ATOM     22  C   GLY A  10     -16.002   3.981 -10.061  0.00  0.00    +0.243 C 
ATOM     23  O   GLY A  10     -16.414   4.799  -9.237  0.00  0.00    -0.273 OA
ATOM     24  N   ASN A  11     -15.557   2.783  -9.713  0.00  0.00    -0.298 N 
ATOM     25  H   ASN A  11     -15.112   2.170 -10.426  0.00  0.00    +0.150 HD
BRANCH  24  26
ATOM     26  CA  ASN A  11     -15.687   2.319  -8.340  0.00  0.00    +0.146 C 
BRANCH  26  27
ATOM     27  C   ASN A  11     -14.686   3.026  -7.434  0.00  0.00    +0.227 C 
ATOM     28  O   ASN A  11     -13.590   3.405  -7.867  0.00  0.00    -0.286 OA
ENDBRANCH  26  27
BRANCH  26  29
ATOM     29  CB  ASN A  11     -15.490   0.800  -8.271  0.00  0.00    +0.112 C 
BRANCH  29  30
ATOM     30  CG  ASN A  11     -14.030   0.401  -8.208  0.00  0.00    +0.222 C 
ATOM     31  OD1 ASN A  11     -13.416   0.426  -7.146  0.00  0.00    -0.275 OA
ATOM     32  ND2 ASN A  11     -13.470   0.028  -9.350  0.00  0.00    -0.329 N 
ATOM     33 HD21 ASN A  11     -12.471  -0.259  -9.370  0.00  0.00    +0.145 HD
ATOM     34 HD22 ASN A  11     -14.030   0.022 -10.226  0.00  0.00    +0.145 HD
ENDBRANCH  29  30
ENDBRANCH  26  29
ENDBRANCH  24  26
ENDBRANCH  21  22
ENDBRANCH  19  21
ENDBRANCH  16  17
BRANCH  16  35
ATOM     35  CB  PHE A   9     -14.858   8.894 -10.823  0.00  0.00    +0.055 C 
BRANCH  35  36
ATOM     36  CG  PHE A   9     -14.649  10.330 -11.212  0.00  0.00    -0.020 A 
ATOM     37  CD2 PHE A   9     -15.606  11.293 -10.920  0.00  0.00    -0.004 A 
ATOM     38  CE2 PHE A   9     -15.432  12.610 -11.314  0.00  0.00    -0.000 A 
ATOM     39  CZ  PHE A   9     -14.289  12.979 -12.008  0.00  0.00    -0.000 A 
ATOM     40  CE1 PHE A   9     -13.327  12.032 -12.303  0.00  0.00    -0.000 A 
ATOM     41  CD1 PHE A   9     -13.509  10.712 -11.904  0.00  0.00    -0.004 A 
ENDBRANCH  35  36
ENDBRANCH  16  35
ENDBRANCH  13  16
ENDBRANCH  11  12
BRANCH  11  42
ATOM     42  CB  LYS A   8     -17.835  10.212 -15.027  0.00  0.00    +0.029 C 
BRANCH  42  43
ATOM     43  CG  LYS A   8     -17.553  11.247 -13.969  0.00  0.00    +0.000 C 
BRANCH  43  44
ATOM     44  CD  LYS A   8     -17.200  12.590 -14.597  0.00  0.00    -0.024 C 
BRANCH  44  45
ATOM     45  CE  LYS A   8     -15.880  12.525 -15.347  0.00  0.00    -0.086 C 
BRANCH  45  46
ATOM     46  NZ  LYS A   8     -15.482  13.867 -15.878  0.00  0.00    +0.380 N 
ATOM     47  HZ1 LYS A   8     -15.379  14.535 -15.087  0.00  0.00    -0.089 HD
ATOM     48  HZ2 LYS A   8     -14.577  13.784 -16.384  0.00  0.00    -0.089 HD
ATOM     49  HZ3 LYS A   8     -16.215  14.211 -16.531  0.00  0.00    -0.089 HD
ENDBRANCH  45  46
ENDBRANCH  44  45
ENDBRANCH  43  44
ENDBRANCH  42  43
ENDBRANCH  11  42
ENDBRANCH   9  11
ENDBRANCH   6   7
BRANCH   6  50
ATOM     50  CB  CYS A   7     -20.924   6.669 -11.251  0.00  0.00    +0.098 C 
ATOM     51  SG  CYS A   7     -22.589   6.507 -10.592  0.00  0.00    -0.080 S 
ENDBRANCH   6  50
ENDBRANCH   3   6
ENDBRANCH   1   2
BRANCH   1  54
ATOM     52  C   GLU A   5     -25.660   6.001 -14.213  0.00  0.00    +0.241 C 
ATOM     53  O   GLU A   5     -25.215   5.023 -13.597  0.00  0.00    -0.273 OA
ATOM     54  N   PHE A   6     -24.924   6.757 -15.018  0.00  0.00    -0.297 N 
ATOM     55  H   PHE A   6     -25.382   7.532 -15.538  0.00  0.00    +0.150 HD
BRANCH  52  56
ATOM     56  CA  GLU A   5     -27.124   6.400 -14.102  0.00  0.00    +0.149 C 
BRANCH  56  58
ATOM     57  C   VAL A   4     -28.034   4.243 -14.700  0.00  0.00    +0.241 C 
ATOM     58  N   GLU A   5     -27.953   5.237 -13.826  0.00  0.00    -0.297 N 
ATOM     59  H   GLU A   5     -28.487   5.185 -12.935  0.00  0.00    +0.150 HD
ATOM     60  O   VAL A   4     -27.361   4.208 -15.739  0.00  0.00    -0.273 OA
BRANCH  57  61
ATOM     61  CA  VAL A   4     -29.018   3.126 -14.355  0.00  0.00    +0.149 C 
BRANCH  61  64
ATOM     62  C   ILE A   3     -30.402   1.843 -15.905  0.00  0.00    +0.241 C 
ATOM     63  O   ILE A   3     -31.445   2.181 -15.351  0.00  0.00    -0.273 OA
ATOM     64  N   VAL A   4     -29.194   2.221 -15.487  0.00  0.00    -0.297 N 
ATOM     65  H   VAL A   4     -28.353   1.861 -15.981  0.00  0.00    +0.150 HD
BRANCH  62  66
ATOM     66  CA  ILE A   3     -30.440   0.952 -17.138  0.00  0.00    +0.149 C 
BRANCH  66  69
ATOM     67  C   VAL A   2     -30.519  -1.455 -16.767  0.00  0.00    +0.241 C 
ATOM     68  O   VAL A   2     -29.292  -1.553 -16.711  0.00  0.00    -0.273 OA
ATOM     69  N   ILE A   3     -31.150  -0.288 -16.852  0.00  0.00    -0.297 N 
ATOM     70  H   ILE A   3     -32.180  -0.259 -16.710  0.00  0.00    +0.150 HD
BRANCH  67  71
ATOM     71  CA  VAL A   2     -31.409  -2.696 -16.734  0.00  0.00    +0.148 C 
BRANCH  71  73
ATOM     72  C   MET A   1     -31.914  -3.727 -18.879  0.00  0.00    +0.238 C 
ATOM     73  N   VAL A   2     -31.083  -3.567 -17.855  0.00  0.00    -0.297 N 
ATOM     74  H   VAL A   2     -30.176  -4.077 -17.854  0.00  0.00    +0.150 HD
ATOM     75  O   MET A   1     -33.026  -3.190 -18.941  0.00  0.00    -0.274 OA
BRANCH  72  76
ATOM     76  CA  MET A   1     -31.422  -4.628 -20.000  0.00  0.00    +0.146 C 
BRANCH  76  77
ATOM     77  N   MET A   1     -32.407  -5.664 -20.297  0.00  0.00    -0.238 NA
ATOM     78  H   MET A   1     -33.405  -5.398 -20.421  0.00  0.00    +0.142 HD
ENDBRANCH  76  77
BRANCH  76  79
ATOM     79  CB  MET A   1     -31.147  -3.787 -21.246  0.00  0.00    +0.038 C 
BRANCH  79  80
ATOM     80  CG  MET A   1     -30.450  -4.543 -22.363  0.00  0.00    +0.060 C 
BRANCH  80  81
ATOM     81  SD  MET A   1     -30.218  -3.515 -23.816  0.00  0.00    -0.139 S 
ATOM     82  CE  MET A   1     -28.840  -4.317 -24.572  0.00  0.00    +0.069 C 
ENDBRANCH  80  81
ENDBRANCH  79  80
ENDBRANCH  76  79
ENDBRANCH  72  76
ENDBRANCH  71  73
BRANCH  71  83
ATOM     83  CB  VAL A   2     -31.218  -3.432 -15.388  0.00  0.00    +0.027 C 
ATOM     84  CG2 VAL A   2     -31.690  -2.552 -14.241  0.00  0.00    +0.002 C 
ATOM     85  CG1 VAL A   2     -31.993  -4.746 -15.402  0.00  0.00    +0.002 C 
ENDBRANCH  71  83
ENDBRANCH  67  71
ENDBRANCH  66  69
BRANCH  66  86
ATOM     86  CB  ILE A   3     -31.127   1.750 -18.263  0.00  0.00    +0.027 C 
ATOM     87  CG2 ILE A   3     -30.260   2.944 -18.647  0.00  0.00    +0.002 C 
BRANCH  86  88
ATOM     88  CG1 ILE A   3     -31.371   0.854 -19.482  0.00  0.00    +0.002 C 
ATOM     89  CD1 ILE A   3     -32.248   1.503 -20.539  0.00  0.00    +0.000 C 
ENDBRANCH  86  88
ENDBRANCH  66  86
ENDBRANCH  62  66
ENDBRANCH  61  64
BRANCH  61  90
ATOM     90  CB  VAL A   4     -28.491   2.382 -13.106  0.00  0.00    +0.027 C 
ATOM     91  CG2 VAL A   4     -29.467   1.277 -12.697  0.00  0.00    +0.002 C 
ATOM     92  CG1 VAL A   4     -27.101   1.815 -13.386  0.00  0.00    +0.002 C 
ENDBRANCH  61  90
ENDBRANCH  57  61
ENDBRANCH  56  58
BRANCH  56  93
ATOM     93  CB  GLU A   5     -27.297   7.463 -13.005  0.00  0.00    +0.041 C 
BRANCH  93  94
ATOM     94  CG  GLU A   5     -26.812   7.046 -11.639  0.00  0.00    +0.116 C 
BRANCH  94  95
ATOM     95  CD  GLU A   5     -27.170   8.057 -10.560  0.00  0.00    +0.365 C 
ATOM     96  OE2 GLU A   5     -27.829   7.670  -9.569  0.00  0.00    -0.246 OA
ATOM     97  OE1 GLU A   5     -26.791   9.242 -10.706  0.00  0.00    -0.246 OA
ENDBRANCH  94  95
ENDBRANCH  93  94
ENDBRANCH  56  93
ENDBRANCH  52  56
ENDBRANCH   1  54
BRANCH   1  98
ATOM     98  CB  PHE A   6     -23.106   6.882 -16.631  0.00  0.00    +0.055 C 
BRANCH  98  99
ATOM     99  CG  PHE A   6     -21.633   6.800 -16.903  0.00  0.00    -0.020 A 
ATOM    100  CD2 PHE A   6     -20.989   5.574 -16.959  0.00  0.00    -0.004 A 
ATOM    101  CE2 PHE A   6     -19.640   5.491 -17.268  0.00  0.00    -0.000 A 
ATOM    102  CZ  PHE A   6     -18.922   6.644 -17.521  0.00  0.00    -0.000 A 
ATOM    103  CE1 PHE A   6     -19.552   7.873 -17.463  0.00  0.00    -0.000 A 
ATOM    104  CD1 PHE A   6     -20.899   7.948 -17.154  0.00  0.00    -0.004 A 
ENDBRANCH  98  99
ENDBRANCH   1  98
TORSDOF 44
REMARK  Name = ../refined-set-2016/4agc/4agc_pocket.pdb
REMARK  228 active torsions:
REMARK  status: ('A' for Active; 'I' for Inactive)
REMARK    1  A    between atoms: _1  and  _3
REMARK    2  A    between atoms: _3  and  _4
REMARK    3  A    between atoms: _3  and  _6
REMARK    4  A    between atoms: _6  and  _7
REMARK    5  A    between atoms: _10  and  _12
REMARK    6  A    between atoms: _12  and  _13
REMARK    7  A    between atoms: _12  and  _15
REMARK    8  A    between atoms: _15  and  _16
REMARK    9  A    between atoms: _18  and  _20
REMARK   10  A    between atoms: _20  and  _21
REMARK   11  A    between atoms: _20  and  _23
REMARK   12  A    between atoms: _23  and  _24
REMARK   13  A    between atoms: _27  and  _29
REMARK   14  A    between atoms: _29  and  _30
REMARK   15  A    between atoms: _29  and  _32
REMARK   16  A    between atoms: _32  and  _33
REMARK   17  A    between atoms: _33  and  _34
REMARK   18  A    between atoms: _34  and  _35
REMARK   19  A    between atoms: _35  and  _36
REMARK   20  A    between atoms: _41  and  _42
REMARK   21  A    between atoms: _47  and  _49
REMARK   22  A    between atoms: _49  and  _50
REMARK   23  A    between atoms: _49  and  _52
REMARK   24  A    between atoms: _52  and  _53
REMARK   25  A    between atoms: _56  and  _58
REMARK   26  A    between atoms: _58  and  _59
REMARK   27  A    between atoms: _61  and  _63
REMARK   28  A    between atoms: _63  and  _64
REMARK   29  A    between atoms: _63  and  _66
REMARK   30  A    between atoms: _66  and  _67
REMARK   31  A    between atoms: _67  and  _68
REMARK   32  A    between atoms: _73  and  _75
REMARK   33  A    between atoms: _75  and  _76
REMARK   34  A    between atoms: _75  and  _78
REMARK   35  A    between atoms: _81  and  _83
REMARK   36  A    between atoms: _83  and  _84
REMARK   37  A    between atoms: _83  and  _86
REMARK   38  A    between atoms: _86  and  _87
REMARK   39  A    between atoms: _90  and  _92
REMARK   40  A    between atoms: _92  and  _93
REMARK   41  A    between atoms: _92  and  _95
REMARK   42  A    between atoms: _95  and  _96
REMARK   43  A    between atoms: _96  and  _97
REMARK   44  A    between atoms: _100  and  _102
REMARK   45  A    between atoms: _102  and  _103
REMARK   46  A    between atoms: _106  and  _108
REMARK   47  A    between atoms: _108  and  _109
REMARK   48  A    between atoms: _108  and  _111
REMARK   49  A    between atoms: _111  and  _112
REMARK   50  A    between atoms: _115  and  _117
REMARK   51  A    between atoms: _117  and  _118
REMARK   52  A    between atoms: _117  and  _120
REMARK   53  A    between atoms: _123  and  _125
REMARK   54  A    between atoms: _125  and  _126
REMARK   55  A    between atoms: _129  and  _131
REMARK   56  A    between atoms: _131  and  _132
REMARK   57  A    between atoms: _131  and  _134
REMARK   58  A    between atoms: _137  and  _139
REMARK   59  A    between atoms: _139  and  _140
REMARK   60  A    between atoms: _139  and  _142
REMARK   61  A    between atoms: _142  and  _143
REMARK   62  A    between atoms: _143  and  _144
REMARK   63  A    between atoms: _144  and  _145
REMARK   64  A    between atoms: _145  and  _146
REMARK   65  A    between atoms: _150  and  _152
REMARK   66  A    between atoms: _152  and  _153
REMARK   67  A    between atoms: _152  and  _155
REMARK   68  A    between atoms: _155  and  _156
REMARK   69  A    between atoms: _156  and  _157
REMARK   70  A    between atoms: _159  and  _161
REMARK   71  A    between atoms: _161  and  _162
REMARK   72  A    between atoms: _161  and  _164
REMARK   73  A    between atoms: _164  and  _165
REMARK   74  A    between atoms: _168  and  _170
REMARK   75  A    between atoms: _170  and  _171
REMARK   76  A    between atoms: _170  and  _173
REMARK   77  A    between atoms: _173  and  _174
REMARK   78  A    between atoms: _174  and  _175
REMARK   79  A    between atoms: _178  and  _180
REMARK   80  A    between atoms: _180  and  _181
REMARK   81  A    between atoms: _180  and  _183
REMARK   82  A    between atoms: _183  and  _184
REMARK   83  A    between atoms: _187  and  _189
REMARK   84  A    between atoms: _189  and  _190
REMARK   85  A    between atoms: _189  and  _192
REMARK   86  A    between atoms: _192  and  _193
REMARK   87  A    between atoms: _196  and  _198
REMARK   88  A    between atoms: _198  and  _199
REMARK   89  A    between atoms: _198  and  _201
REMARK   90  A    between atoms: _201  and  _202
REMARK   91  A    between atoms: _205  and  _207
REMARK   92  A    between atoms: _207  and  _208
REMARK   93  A    between atoms: _207  and  _210
REMARK   94  A    between atoms: _210  and  _211
REMARK   95  A    between atoms: _214  and  _216
REMARK   96  A    between atoms: _216  and  _217
REMARK   97  A    between atoms: _216  and  _219
REMARK   98  A    between atoms: _222  and  _224
REMARK   99  A    between atoms: _224  and  _225
REMARK  100  A    between atoms: _224  and  _227
REMARK  101  A    between atoms: _230  and  _232
REMARK  102  A    between atoms: _232  and  _233
REMARK  103  A    between atoms: _232  and  _235
REMARK  104  A    between atoms: _235  and  _236
REMARK  105  A    between atoms: _241  and  _243
REMARK  106  A    between atoms: _243  and  _244
REMARK  107  A    between atoms: _243  and  _246
REMARK  108  A    between atoms: _246  and  _247
REMARK  109  A    between atoms: _250  and  _252
REMARK  110  A    between atoms: _252  and  _253
REMARK  111  A    between atoms: _252  and  _255
REMARK  112  A    between atoms: _255  and  _256
REMARK  113  A    between atoms: _259  and  _261
REMARK  114  A    between atoms: _261  and  _262
REMARK  115  A    between atoms: _264  and  _266
REMARK  116  A    between atoms: _266  and  _267
REMARK  117  A    between atoms: _266  and  _269
REMARK  118  A    between atoms: _269  and  _270
REMARK  119  A    between atoms: _270  and  _271
REMARK  120  A    between atoms: _273  and  _275
REMARK  121  A    between atoms: _275  and  _276
REMARK  122  A    between atoms: _275  and  _278
REMARK  123  A    between atoms: _281  and  _283
REMARK  124  A    between atoms: _283  and  _284
REMARK  125  A    between atoms: _283  and  _286
REMARK  126  A    between atoms: _286  and  _287
REMARK  127  A    between atoms: _290  and  _292
REMARK  128  A    between atoms: _292  and  _293
REMARK  129  A    between atoms: _292  and  _295
REMARK  130  A    between atoms: _298  and  _300
REMARK  131  A    between atoms: _300  and  _301
REMARK  132  A    between atoms: _300  and  _303
REMARK  133  A    between atoms: _303  and  _304
REMARK  134  A    between atoms: _304  and  _305
REMARK  135  A    between atoms: _308  and  _310
REMARK  136  A    between atoms: _310  and  _311
REMARK  137  A    between atoms: _310  and  _313
REMARK  138  A    between atoms: _313  and  _314
REMARK  139  A    between atoms: _320  and  _322
REMARK  140  A    between atoms: _322  and  _323
REMARK  141  A    between atoms: _322  and  _325
REMARK  142  A    between atoms: _327  and  _329
REMARK  143  A    between atoms: _329  and  _330
REMARK  144  A    between atoms: _329  and  _332
REMARK  145  A    between atoms: _332  and  _333
REMARK  146  A    between atoms: _333  and  _334
REMARK  147  A    between atoms: _334  and  _335
REMARK  148  A    between atoms: _335  and  _336
REMARK  149  A    between atoms: _340  and  _342
REMARK  150  A    between atoms: _342  and  _343
REMARK  151  A    between atoms: _342  and  _345
REMARK  152  A    between atoms: _345  and  _346
REMARK  153  A    between atoms: _352  and  _354
REMARK  154  A    between atoms: _354  and  _355
REMARK  155  A    between atoms: _357  and  _359
REMARK  156  A    between atoms: _359  and  _360
REMARK  157  A    between atoms: _359  and  _362
REMARK  158  A    between atoms: _362  and  _363
REMARK  159  A    between atoms: _368  and  _370
REMARK  160  A    between atoms: _370  and  _371
REMARK  161  A    between atoms: _370  and  _373
REMARK  162  A    between atoms: _373  and  _374
REMARK  163  A    between atoms: _377  and  _379
REMARK  164  A    between atoms: _379  and  _380
REMARK  165  A    between atoms: _379  and  _382
REMARK  166  A    between atoms: _382  and  _383
REMARK  167  A    between atoms: _388  and  _390
REMARK  168  A    between atoms: _390  and  _391
REMARK  169  A    between atoms: _390  and  _393
REMARK  170  A    between atoms: _393  and  _394
REMARK  171  A    between atoms: _394  and  _395
REMARK  172  A    between atoms: _395  and  _396
REMARK  173  A    between atoms: _405  and  _407
REMARK  174  A    between atoms: _407  and  _408
REMARK  175  A    between atoms: _407  and  _410
REMARK  176  A    between atoms: _410  and  _411
REMARK  177  A    between atoms: _416  and  _418
REMARK  178  A    between atoms: _418  and  _419
REMARK  179  A    between atoms: _418  and  _421
REMARK  180  A    between atoms: _421  and  _422
REMARK  181  A    between atoms: _425  and  _427
REMARK  182  A    between atoms: _427  and  _428
REMARK  183  A    between atoms: _427  and  _430
REMARK  184  A    between atoms: _430  and  _431
REMARK  185  A    between atoms: _434  and  _436
REMARK  186  A    between atoms: _436  and  _437
REMARK  187  A    between atoms: _436  and  _439
REMARK  188  A    between atoms: _439  and  _440
REMARK  189  A    between atoms: _443  and  _445
REMARK  190  A    between atoms: _445  and  _446
REMARK  191  A    between atoms: _445  and  _448
REMARK  192  A    between atoms: _448  and  _449
REMARK  193  A    between atoms: _451  and  _453
REMARK  194  A    between atoms: _453  and  _454
REMARK  195  A    between atoms: _453  and  _456
REMARK  196  A    between atoms: _456  and  _457
REMARK  197  A    between atoms: _457  and  _458
REMARK  198  A    between atoms: _458  and  _459
REMARK  199  A    between atoms: _459  and  _460
REMARK  200  A    between atoms: _464  and  _466
REMARK  201  A    between atoms: _466  and  _467
REMARK  202  A    between atoms: _466  and  _469
REMARK  203  A    between atoms: _469  and  _470
REMARK  204  A    between atoms: _473  and  _475
REMARK  205  A    between atoms: _475  and  _476
REMARK  206  A    between atoms: _475  and  _478
REMARK  207  A    between atoms: _480  and  _482
REMARK  208  A    between atoms: _482  and  _483
REMARK  209  A    between atoms: _482  and  _485
REMARK  210  A    between atoms: _485  and  _486
REMARK  211  A    between atoms: _489  and  _491
REMARK  212  A    between atoms: _491  and  _492
REMARK  213  A    between atoms: _491  and  _494
REMARK  214  A    between atoms: _494  and  _495
REMARK  215  A    between atoms: _501  and  _503
REMARK  216  A    between atoms: _503  and  _504
REMARK  217  A    between atoms: _506  and  _508
REMARK  218  A    between atoms: _508  and  _509
REMARK  219  A    between atoms: _508  and  _511
REMARK  220  A    between atoms: _511  and  _512
REMARK  221  A    between atoms: _515  and  _517
REMARK  222  A    between atoms: _517  and  _518
REMARK  223  A    between atoms: _521  and  _523
REMARK  224  A    between atoms: _523  and  _524
REMARK  225  A    between atoms: _523  and  _526
REMARK  226  A    between atoms: _526  and  _527
REMARK  227  A    between atoms: _527  and  _528
REMARK  228  A    between atoms: _528  and  _529
REMARK                            x       y       z     vdW  Elec       q    Type
REMARK                         _______ _______ _______ _____ _____    ______ ____
ROOT
ATOM      1  CA  THR A   1      -9.858   1.859  -7.774  0.00  0.00    +0.160 C 
ENDROOT
BRANCH   1   2
ATOM      2  N   THR A   1     -10.790   1.576  -6.690  0.00  0.00    -0.237 NA
ATOM      3  H   THR A   1     -11.685   1.095  -6.911  0.00  0.00    +0.142 HD
ENDBRANCH   1   2
BRANCH   1   4
ATOM      4  C   THR A   1      -9.525   3.342  -7.830  0.00  0.00    +0.227 C 
ATOM      5  O   THR A   1      -8.364   3.735  -7.993  0.00  0.00    -0.287 OA
ENDBRANCH   1   4
BRANCH   1   6
ATOM      6  CB  THR A   1     -10.462   1.432  -9.120  0.00  0.00    +0.134 C 
ATOM      7  CG2 THR A   1      -9.493   1.707 -10.271  0.00  0.00    +0.034 C 
BRANCH   6   8
ATOM      8  OG1 THR A   1     -10.765   0.036  -9.063  0.00  0.00    -0.383 OA
ATOM      9  HG1 THR A   1      -9.934  -0.474  -8.889  0.00  0.00    +0.210 HD
ENDBRANCH   6   8
ENDBRANCH   1   6
TORSDOF 4
REMARK  Name = ../refined-set-2016/4agc/4agc_pocket.pdb
REMARK  228 active torsions:
REMARK  status: ('A' for Active; 'I' for Inactive)
REMARK    1  A    between atoms: _1  and  _3
REMARK    2  A    between atoms: _3  and  _4
REMARK    3  A    between atoms: _3  and  _6
REMARK    4  A    between atoms: _6  and  _7
REMARK    5  A    between atoms: _10  and  _12
REMARK    6  A    between atoms: _12  and  _13
REMARK    7  A    between atoms: _12  and  _15
REMARK    8  A    between atoms: _15  and  _16
REMARK    9  A    between atoms: _18  and  _20
REMARK   10  A    between atoms: _20  and  _21
REMARK   11  A    between atoms: _20  and  _23
REMARK   12  A    between atoms: _23  and  _24
REMARK   13  A    between atoms: _27  and  _29
REMARK   14  A    between atoms: _29  and  _30
REMARK   15  A    between atoms: _29  and  _32
REMARK   16  A    between atoms: _32  and  _33
REMARK   17  A    between atoms: _33  and  _34
REMARK   18  A    between atoms: _34  and  _35
REMARK   19  A    between atoms: _35  and  _36
REMARK   20  A    between atoms: _41  and  _42
REMARK   21  A    between atoms: _47  and  _49
REMARK   22  A    between atoms: _49  and  _50
REMARK   23  A    between atoms: _49  and  _52
REMARK   24  A    between atoms: _52  and  _53
REMARK   25  A    between atoms: _56  and  _58
REMARK   26  A    between atoms: _58  and  _59
REMARK   27  A    between atoms: _61  and  _63
REMARK   28  A    between atoms: _63  and  _64
REMARK   29  A    between atoms: _63  and  _66
REMARK   30  A    between atoms: _66  and  _67
REMARK   31  A    between atoms: _67  and  _68
REMARK   32  A    between atoms: _73  and  _75
REMARK   33  A    between atoms: _75  and  _76
REMARK   34  A    between atoms: _75  and  _78
REMARK   35  A    between atoms: _81  and  _83
REMARK   36  A    between atoms: _83  and  _84
REMARK   37  A    between atoms: _83  and  _86
REMARK   38  A    between atoms: _86  and  _87
REMARK   39  A    between atoms: _90  and  _92
REMARK   40  A    between atoms: _92  and  _93
REMARK   41  A    between atoms: _92  and  _95
REMARK   42  A    between atoms: _95  and  _96
REMARK   43  A    between atoms: _96  and  _97
REMARK   44  A    between atoms: _100  and  _102
REMARK   45  A    between atoms: _102  and  _103
REMARK   46  A    between atoms: _106  and  _108
REMARK   47  A    between atoms: _108  and  _109
REMARK   48  A    between atoms: _108  and  _111
REMARK   49  A    between atoms: _111  and  _112
REMARK   50  A    between atoms: _115  and  _117
REMARK   51  A    between atoms: _117  and  _118
REMARK   52  A    between atoms: _117  and  _120
REMARK   53  A    between atoms: _123  and  _125
REMARK   54  A    between atoms: _125  and  _126
REMARK   55  A    between atoms: _129  and  _131
REMARK   56  A    between atoms: _131  and  _132
REMARK   57  A    between atoms: _131  and  _134
REMARK   58  A    between atoms: _137  and  _139
REMARK   59  A    between atoms: _139  and  _140
REMARK   60  A    between atoms: _139  and  _142
REMARK   61  A    between atoms: _142  and  _143
REMARK   62  A    between atoms: _143  and  _144
REMARK   63  A    between atoms: _144  and  _145
REMARK   64  A    between atoms: _145  and  _146
REMARK   65  A    between atoms: _150  and  _152
REMARK   66  A    between atoms: _152  and  _153
REMARK   67  A    between atoms: _152  and  _155
REMARK   68  A    between atoms: _155  and  _156
REMARK   69  A    between atoms: _156  and  _157
REMARK   70  A    between atoms: _159  and  _161
REMARK   71  A    between atoms: _161  and  _162
REMARK   72  A    between atoms: _161  and  _164
REMARK   73  A    between atoms: _164  and  _165
REMARK   74  A    between atoms: _168  and  _170
REMARK   75  A    between atoms: _170  and  _171
REMARK   76  A    between atoms: _170  and  _173
REMARK   77  A    between atoms: _173  and  _174
REMARK   78  A    between atoms: _174  and  _175
REMARK   79  A    between atoms: _178  and  _180
REMARK   80  A    between atoms: _180  and  _181
REMARK   81  A    between atoms: _180  and  _183
REMARK   82  A    between atoms: _183  and  _184
REMARK   83  A    between atoms: _187  and  _189
REMARK   84  A    between atoms: _189  and  _190
REMARK   85  A    between atoms: _189  and  _192
REMARK   86  A    between atoms: _192  and  _193
REMARK   87  A    between atoms: _196  and  _198
REMARK   88  A    between atoms: _198  and  _199
REMARK   89  A    between atoms: _198  and  _201
REMARK   90  A    between atoms: _201  and  _202
REMARK   91  A    between atoms: _205  and  _207
REMARK   92  A    between atoms: _207  and  _208
REMARK   93  A    between atoms: _207  and  _210
REMARK   94  A    between atoms: _210  and  _211
REMARK   95  A    between atoms: _214  and  _216
REMARK   96  A    between atoms: _216  and  _217
REMARK   97  A    between atoms: _216  and  _219
REMARK   98  A    between atoms: _222  and  _224
REMARK   99  A    between atoms: _224  and  _225
REMARK  100  A    between atoms: _224  and  _227
REMARK  101  A    between atoms: _230  and  _232
REMARK  102  A    between atoms: _232  and  _233
REMARK  103  A    between atoms: _232  and  _235
REMARK  104  A    between atoms: _235  and  _236
REMARK  105  A    between atoms: _241  and  _243
REMARK  106  A    between atoms: _243  and  _244
REMARK  107  A    between atoms: _243  and  _246
REMARK  108  A    between atoms: _246  and  _247
REMARK  109  A    between atoms: _250  and  _252
REMARK  110  A    between atoms: _252  and  _253
REMARK  111  A    between atoms: _252  and  _255
REMARK  112  A    between atoms: _255  and  _256
REMARK  113  A    between atoms: _259  and  _261
REMARK  114  A    between atoms: _261  and  _262
REMARK  115  A    between atoms: _264  and  _266
REMARK  116  A    between atoms: _266  and  _267
REMARK  117  A    between atoms: _266  and  _269
REMARK  118  A    between atoms: _269  and  _270
REMARK  119  A    between atoms: _270  and  _271
REMARK  120  A    between atoms: _273  and  _275
REMARK  121  A    between atoms: _275  and  _276
REMARK  122  A    between atoms: _275  and  _278
REMARK  123  A    between atoms: _281  and  _283
REMARK  124  A    between atoms: _283  and  _284
REMARK  125  A    between atoms: _283  and  _286
REMARK  126  A    between atoms: _286  and  _287
REMARK  127  A    between atoms: _290  and  _292
REMARK  128  A    between atoms: _292  and  _293
REMARK  129  A    between atoms: _292  and  _295
REMARK  130  A    between atoms: _298  and  _300
REMARK  131  A    between atoms: _300  and  _301
REMARK  132  A    between atoms: _300  and  _303
REMARK  133  A    between atoms: _303  and  _304
REMARK  134  A    between atoms: _304  and  _305
REMARK  135  A    between atoms: _308  and  _310
REMARK  136  A    between atoms: _310  and  _311
REMARK  137  A    between atoms: _310  and  _313
REMARK  138  A    between atoms: _313  and  _314
REMARK  139  A    between atoms: _320  and  _322
REMARK  140  A    between atoms: _322  and  _323
REMARK  141  A    between atoms: _322  and  _325
REMARK  142  A    between atoms: _327  and  _329
REMARK  143  A    between atoms: _329  and  _330
REMARK  144  A    between atoms: _329  and  _332
REMARK  145  A    between atoms: _332  and  _333
REMARK  146  A    between atoms: _333  and  _334
REMARK  147  A    between atoms: _334  and  _335
REMARK  148  A    between atoms: _335  and  _336
REMARK  149  A    between atoms: _340  and  _342
REMARK  150  A    between atoms: _342  and  _343
REMARK  151  A    between atoms: _342  and  _345
REMARK  152  A    between atoms: _345  and  _346
REMARK  153  A    between atoms: _352  and  _354
REMARK  154  A    between atoms: _354  and  _355
REMARK  155  A    between atoms: _357  and  _359
REMARK  156  A    between atoms: _359  and  _360
REMARK  157  A    between atoms: _359  and  _362
REMARK  158  A    between atoms: _362  and  _363
REMARK  159  A    between atoms: _368  and  _370
REMARK  160  A    between atoms: _370  and  _371
REMARK  161  A    between atoms: _370  and  _373
REMARK  162  A    between atoms: _373  and  _374
REMARK  163  A    between atoms: _377  and  _379
REMARK  164  A    between atoms: _379  and  _380
REMARK  165  A    between atoms: _379  and  _382
REMARK  166  A    between atoms: _382  and  _383
REMARK  167  A    between atoms: _388  and  _390
REMARK  168  A    between atoms: _390  and  _391
REMARK  169  A    between atoms: _390  and  _393
REMARK  170  A    between atoms: _393  and  _394
REMARK  171  A    between atoms: _394  and  _395
REMARK  172  A    between atoms: _395  and  _396
REMARK  173  A    between atoms: _405  and  _407
REMARK  174  A    between atoms: _407  and  _408
REMARK  175  A    between atoms: _407  and  _410
REMARK  176  A    between atoms: _410  and  _411
REMARK  177  A    between atoms: _416  and  _418
REMARK  178  A    between atoms: _418  and  _419
REMARK  179  A    between atoms: _418  and  _421
REMARK  180  A    between atoms: _421  and  _422
REMARK  181  A    between atoms: _425  and  _427
REMARK  182  A    between atoms: _427  and  _428
REMARK  183  A    between atoms: _427  and  _430
REMARK  184  A    between atoms: _430  and  _431
REMARK  185  A    between atoms: _434  and  _436
REMARK  186  A    between atoms: _436  and  _437
REMARK  187  A    between atoms: _436  and  _439
REMARK  188  A    between atoms: _439  and  _440
REMARK  189  A    between atoms: _443  and  _445
REMARK  190  A    between atoms: _445  and  _446
REMARK  191  A    between atoms: _445  and  _448
REMARK  192  A    between atoms: _448  and  _449
REMARK  193  A    between atoms: _451  and  _453
REMARK  194  A    between atoms: _453  and  _454
REMARK  195  A    between atoms: _453  and  _456
REMARK  196  A    between atoms: _456  and  _457
REMARK  197  A    between atoms: _457  and  _458
REMARK  198  A    between atoms: _458  and  _459
REMARK  199  A    between atoms: _459  and  _460
REMARK  200  A    between atoms: _464  and  _466
REMARK  201  A    between atoms: _466  and  _467
REMARK  202  A    between atoms: _466  and  _469
REMARK  203  A    between atoms: _469  and  _470
REMARK  204  A    between atoms: _473  and  _475
REMARK  205  A    between atoms: _475  and  _476
REMARK  206  A    between atoms: _475  and  _478
REMARK  207  A    between atoms: _480  and  _482
REMARK  208  A    between atoms: _482  and  _483
REMARK  209  A    between atoms: _482  and  _485
REMARK  210  A    between atoms: _485  and  _486
REMARK  211  A    between atoms: _489  and  _491
REMARK  212  A    between atoms: _491  and  _492
REMARK  213  A    between atoms: _491  and  _494
REMARK  214  A    between atoms: _494  and  _495
REMARK  215  A    between atoms: _501  and  _503
REMARK  216  A    between atoms: _503  and  _504
REMARK  217  A    between atoms: _506  and  _508
REMARK  218  A    between atoms: _508  and  _509
REMARK  219  A    between atoms: _508  and  _511
REMARK  220  A    between atoms: _511  and  _512
REMARK  221  A    between atoms: _515  and  _517
REMARK  222  A    between atoms: _517  and  _518
REMARK  223  A    between atoms: _521  and  _523
REMARK  224  A    between atoms: _523  and  _524
REMARK  225  A    between atoms: _523  and  _526
REMARK  226  A    between atoms: _526  and  _527
REMARK  227  A    between atoms: _527  and  _528
REMARK  228  A    between atoms: _528  and  _529
REMARK                            x       y       z     vdW  Elec       q    Type
REMARK                         _______ _______ _______ _____ _____    ______ ____
ROOT
ATOM      1  CB  HIS A   1     -25.815  -3.864   0.825  0.00  0.00    +0.072 C 
ENDROOT
BRANCH   1   2
ATOM      2  CG  HIS A   1     -25.092  -3.755  -0.480  0.00  0.00    +0.082 A 
ATOM      3  ND1 HIS A   1     -24.338  -4.784  -1.001  0.00  0.00    -0.227 NA
ATOM      4  CE1 HIS A   1     -23.834  -4.410  -2.165  0.00  0.00    +0.199 A 
ATOM      5  NE2 HIS A   1     -24.233  -3.175  -2.416  0.00  0.00    -0.221 NA
ATOM      6  CD2 HIS A   1     -25.021  -2.742  -1.377  0.00  0.00    +0.115 A 
ENDBRANCH   1   2
BRANCH   1   7
ATOM      7  CA  HIS A   1     -26.541  -5.197   1.024  0.00  0.00    +0.139 C 
BRANCH   7   8
ATOM      8  N   HIS A   1     -27.520  -5.076   2.098  0.00  0.00    -0.239 NA
ATOM      9  H   HIS A   1     -27.199  -4.806   3.050  0.00  0.00    +0.142 HD
ENDBRANCH   7   8
BRANCH   7  10
ATOM     10  C   HIS A   1     -25.548  -6.275   1.425  0.00  0.00    +0.224 C 
ATOM     11  O   HIS A   1     -24.718  -6.068   2.303  0.00  0.00    -0.287 OA
ENDBRANCH   7  10
ENDBRANCH   1   7
TORSDOF 4
REMARK  Name = ../refined-set-2016/4agc/4agc_pocket.pdb
REMARK  228 active torsions:
REMARK  status: ('A' for Active; 'I' for Inactive)
REMARK    1  A    between atoms: _1  and  _3
REMARK    2  A    between atoms: _3  and  _4
REMARK    3  A    between atoms: _3  and  _6
REMARK    4  A    between atoms: _6  and  _7
REMARK    5  A    between atoms: _10  and  _12
REMARK    6  A    between atoms: _12  and  _13
REMARK    7  A    between atoms: _12  and  _15
REMARK    8  A    between atoms: _15  and  _16
REMARK    9  A    between atoms: _18  and  _20
REMARK   10  A    between atoms: _20  and  _21
REMARK   11  A    between atoms: _20  and  _23
REMARK   12  A    between atoms: _23  and  _24
REMARK   13  A    between atoms: _27  and  _29
REMARK   14  A    between atoms: _29  and  _30
REMARK   15  A    between atoms: _29  and  _32
REMARK   16  A    between atoms: _32  and  _33
REMARK   17  A    between atoms: _33  and  _34
REMARK   18  A    between atoms: _34  and  _35
REMARK   19  A    between atoms: _35  and  _36
REMARK   20  A    between atoms: _41  and  _42
REMARK   21  A    between atoms: _47  and  _49
REMARK   22  A    between atoms: _49  and  _50
REMARK   23  A    between atoms: _49  and  _52
REMARK   24  A    between atoms: _52  and  _53
REMARK   25  A    between atoms: _56  and  _58
REMARK   26  A    between atoms: _58  and  _59
REMARK   27  A    between atoms: _61  and  _63
REMARK   28  A    between atoms: _63  and  _64
REMARK   29  A    between atoms: _63  and  _66
REMARK   30  A    between atoms: _66  and  _67
REMARK   31  A    between atoms: _67  and  _68
REMARK   32  A    between atoms: _73  and  _75
REMARK   33  A    between atoms: _75  and  _76
REMARK   34  A    between atoms: _75  and  _78
REMARK   35  A    between atoms: _81  and  _83
REMARK   36  A    between atoms: _83  and  _84
REMARK   37  A    between atoms: _83  and  _86
REMARK   38  A    between atoms: _86  and  _87
REMARK   39  A    between atoms: _90  and  _92
REMARK   40  A    between atoms: _92  and  _93
REMARK   41  A    between atoms: _92  and  _95
REMARK   42  A    between atoms: _95  and  _96
REMARK   43  A    between atoms: _96  and  _97
REMARK   44  A    between atoms: _100  and  _102
REMARK   45  A    between atoms: _102  and  _103
REMARK   46  A    between atoms: _106  and  _108
REMARK   47  A    between atoms: _108  and  _109
REMARK   48  A    between atoms: _108  and  _111
REMARK   49  A    between atoms: _111  and  _112
REMARK   50  A    between atoms: _115  and  _117
REMARK   51  A    between atoms: _117  and  _118
REMARK   52  A    between atoms: _117  and  _120
REMARK   53  A    between atoms: _123  and  _125
REMARK   54  A    between atoms: _125  and  _126
REMARK   55  A    between atoms: _129  and  _131
REMARK   56  A    between atoms: _131  and  _132
REMARK   57  A    between atoms: _131  and  _134
REMARK   58  A    between atoms: _137  and  _139
REMARK   59  A    between atoms: _139  and  _140
REMARK   60  A    between atoms: _139  and  _142
REMARK   61  A    between atoms: _142  and  _143
REMARK   62  A    between atoms: _143  and  _144
REMARK   63  A    between atoms: _144  and  _145
REMARK   64  A    between atoms: _145  and  _146
REMARK   65  A    between atoms: _150  and  _152
REMARK   66  A    between atoms: _152  and  _153
REMARK   67  A    between atoms: _152  and  _155
REMARK   68  A    between atoms: _155  and  _156
REMARK   69  A    between atoms: _156  and  _157
REMARK   70  A    between atoms: _159  and  _161
REMARK   71  A    between atoms: _161  and  _162
REMARK   72  A    between atoms: _161  and  _164
REMARK   73  A    between atoms: _164  and  _165
REMARK   74  A    between atoms: _168  and  _170
REMARK   75  A    between atoms: _170  and  _171
REMARK   76  A    between atoms: _170  and  _173
REMARK   77  A    between atoms: _173  and  _174
REMARK   78  A    between atoms: _174  and  _175
REMARK   79  A    between atoms: _178  and  _180
REMARK   80  A    between atoms: _180  and  _181
REMARK   81  A    between atoms: _180  and  _183
REMARK   82  A    between atoms: _183  and  _184
REMARK   83  A    between atoms: _187  and  _189
REMARK   84  A    between atoms: _189  and  _190
REMARK   85  A    between atoms: _189  and  _192
REMARK   86  A    between atoms: _192  and  _193
REMARK   87  A    between atoms: _196  and  _198
REMARK   88  A    between atoms: _198  and  _199
REMARK   89  A    between atoms: _198  and  _201
REMARK   90  A    between atoms: _201  and  _202
REMARK   91  A    between atoms: _205  and  _207
REMARK   92  A    between atoms: _207  and  _208
REMARK   93  A    between atoms: _207  and  _210
REMARK   94  A    between atoms: _210  and  _211
REMARK   95  A    between atoms: _214  and  _216
REMARK   96  A    between atoms: _216  and  _217
REMARK   97  A    between atoms: _216  and  _219
REMARK   98  A    between atoms: _222  and  _224
REMARK   99  A    between atoms: _224  and  _225
REMARK  100  A    between atoms: _224  and  _227
REMARK  101  A    between atoms: _230  and  _232
REMARK  102  A    between atoms: _232  and  _233
REMARK  103  A    between atoms: _232  and  _235
REMARK  104  A    between atoms: _235  and  _236
REMARK  105  A    between atoms: _241  and  _243
REMARK  106  A    between atoms: _243  and  _244
REMARK  107  A    between atoms: _243  and  _246
REMARK  108  A    between atoms: _246  and  _247
REMARK  109  A    between atoms: _250  and  _252
REMARK  110  A    between atoms: _252  and  _253
REMARK  111  A    between atoms: _252  and  _255
REMARK  112  A    between atoms: _255  and  _256
REMARK  113  A    between atoms: _259  and  _261
REMARK  114  A    between atoms: _261  and  _262
REMARK  115  A    between atoms: _264  and  _266
REMARK  116  A    between atoms: _266  and  _267
REMARK  117  A    between atoms: _266  and  _269
REMARK  118  A    between atoms: _269  and  _270
REMARK  119  A    between atoms: _270  and  _271
REMARK  120  A    between atoms: _273  and  _275
REMARK  121  A    between atoms: _275  and  _276
REMARK  122  A    between atoms: _275  and  _278
REMARK  123  A    between atoms: _281  and  _283
REMARK  124  A    between atoms: _283  and  _284
REMARK  125  A    between atoms: _283  and  _286
REMARK  126  A    between atoms: _286  and  _287
REMARK  127  A    between atoms: _290  and  _292
REMARK  128  A    between atoms: _292  and  _293
REMARK  129  A    between atoms: _292  and  _295
REMARK  130  A    between atoms: _298  and  _300
REMARK  131  A    between atoms: _300  and  _301
REMARK  132  A    between atoms: _300  and  _303
REMARK  133  A    between atoms: _303  and  _304
REMARK  134  A    between atoms: _304  and  _305
REMARK  135  A    between atoms: _308  and  _310
REMARK  136  A    between atoms: _310  and  _311
REMARK  137  A    between atoms: _310  and  _313
REMARK  138  A    between atoms: _313  and  _314
REMARK  139  A    between atoms: _320  and  _322
REMARK  140  A    between atoms: _322  and  _323
REMARK  141  A    between atoms: _322  and  _325
REMARK  142  A    between atoms: _327  and  _329
REMARK  143  A    between atoms: _329  and  _330
REMARK  144  A    between atoms: _329  and  _332
REMARK  145  A    between atoms: _332  and  _333
REMARK  146  A    between atoms: _333  and  _334
REMARK  147  A    between atoms: _334  and  _335
REMARK  148  A    between atoms: _335  and  _336
REMARK  149  A    between atoms: _340  and  _342
REMARK  150  A    between atoms: _342  and  _343
REMARK  151  A    between atoms: _342  and  _345
REMARK  152  A    between atoms: _345  and  _346
REMARK  153  A    between atoms: _352  and  _354
REMARK  154  A    between atoms: _354  and  _355
REMARK  155  A    between atoms: _357  and  _359
REMARK  156  A    between atoms: _359  and  _360
REMARK  157  A    between atoms: _359  and  _362
REMARK  158  A    between atoms: _362  and  _363
REMARK  159  A    between atoms: _368  and  _370
REMARK  160  A    between atoms: _370  and  _371
REMARK  161  A    between atoms: _370  and  _373
REMARK  162  A    between atoms: _373  and  _374
REMARK  163  A    between atoms: _377  and  _379
REMARK  164  A    between atoms: _379  and  _380
REMARK  165  A    between atoms: _379  and  _382
REMARK  166  A    between atoms: _382  and  _383
REMARK  167  A    between atoms: _388  and  _390
REMARK  168  A    between atoms: _390  and  _391
REMARK  169  A    between atoms: _390  and  _393
REMARK  170  A    between atoms: _393  and  _394
REMARK  171  A    between atoms: _394  and  _395
REMARK  172  A    between atoms: _395  and  _396
REMARK  173  A    between atoms: _405  and  _407
REMARK  174  A    between atoms: _407  and  _408
REMARK  175  A    between atoms: _407  and  _410
REMARK  176  A    between atoms: _410  and  _411
REMARK  177  A    between atoms: _416  and  _418
REMARK  178  A    between atoms: _418  and  _419
REMARK  179  A    between atoms: _418  and  _421
REMARK  180  A    between atoms: _421  and  _422
REMARK  181  A    between atoms: _425  and  _427
REMARK  182  A    between atoms: _427  and  _428
REMARK  183  A    between atoms: _427  and  _430
REMARK  184  A    between atoms: _430  and  _431
REMARK  185  A    between atoms: _434  and  _436
REMARK  186  A    between atoms: _436  and  _437
REMARK  187  A    between atoms: _436  and  _439
REMARK  188  A    between atoms: _439  and  _440
REMARK  189  A    between atoms: _443  and  _445
REMARK  190  A    between atoms: _445  and  _446
REMARK  191  A    between atoms: _445  and  _448
REMARK  192  A    between atoms: _448  and  _449
REMARK  193  A    between atoms: _451  and  _453
REMARK  194  A    between atoms: _453  and  _454
REMARK  195  A    between atoms: _453  and  _456
REMARK  196  A    between atoms: _456  and  _457
REMARK  197  A    between atoms: _457  and  _458
REMARK  198  A    between atoms: _458  and  _459
REMARK  199  A    between atoms: _459  and  _460
REMARK  200  A    between atoms: _464  and  _466
REMARK  201  A    between atoms: _466  and  _467
REMARK  202  A    between atoms: _466  and  _469
REMARK  203  A    between atoms: _469  and  _470
REMARK  204  A    between atoms: _473  and  _475
REMARK  205  A    between atoms: _475  and  _476
REMARK  206  A    between atoms: _475  and  _478
REMARK  207  A    between atoms: _480  and  _482
REMARK  208  A    between atoms: _482  and  _483
REMARK  209  A    between atoms: _482  and  _485
REMARK  210  A    between atoms: _485  and  _486
REMARK  211  A    between atoms: _489  and  _491
REMARK  212  A    between atoms: _491  and  _492
REMARK  213  A    between atoms: _491  and  _494
REMARK  214  A    between atoms: _494  and  _495
REMARK  215  A    between atoms: _501  and  _503
REMARK  216  A    between atoms: _503  and  _504
REMARK  217  A    between atoms: _506  and  _508
REMARK  218  A    between atoms: _508  and  _509
REMARK  219  A    between atoms: _508  and  _511
REMARK  220  A    between atoms: _511  and  _512
REMARK  221  A    between atoms: _515  and  _517
REMARK  222  A    between atoms: _517  and  _518
REMARK  223  A    between atoms: _521  and  _523
REMARK  224  A    between atoms: _523  and  _524
REMARK  225  A    between atoms: _523  and  _526
REMARK  226  A    between atoms: _526  and  _527
REMARK  227  A    between atoms: _527  and  _528
REMARK  228  A    between atoms: _528  and  _529
REMARK                            x       y       z     vdW  Elec       q    Type
REMARK                         _______ _______ _______ _____ _____    ______ ____
ROOT
ATOM      1  CA  ILE A   3     -19.345   2.274  -4.314  0.00  0.00    +0.149 C 
ENDROOT
BRANCH   1   4
ATOM      2  C   ASN A   2     -19.910  -0.087  -4.551  0.00  0.00    +0.241 C 
ATOM      3  O   ASN A   2     -21.118   0.118  -4.392  0.00  0.00    -0.273 OA
ATOM      4  N   ILE A   3     -18.986   0.858  -4.401  0.00  0.00    -0.297 N 
ATOM      5  H   ILE A   3     -17.984   0.584  -4.344  0.00  0.00    +0.150 HD
BRANCH   2   6
ATOM      6  CA  ASN A   2     -19.394  -1.471  -4.919  0.00  0.00    +0.158 C 
BRANCH   6   8
ATOM      7  C   ARG A   1     -17.053  -1.754  -5.500  0.00  0.00    +0.238 C 
ATOM      8  N   ASN A   2     -17.987  -1.647  -4.558  0.00  0.00    -0.297 N 
ATOM      9  H   ASN A   2     -17.714  -1.689  -3.555  0.00  0.00    +0.150 HD
ATOM     10  O   ARG A   1     -17.323  -1.793  -6.699  0.00  0.00    -0.274 OA
BRANCH   7  11
ATOM     11  CA  ARG A   1     -15.595  -1.847  -5.026  0.00  0.00    +0.145 C 
BRANCH  11  12
ATOM     12  N   ARG A   1     -15.469  -1.436  -3.630  0.00  0.00    -0.238 NA
ATOM     13  H   ARG A   1     -15.204  -2.141  -2.913  0.00  0.00    +0.142 HD
ENDBRANCH  11  12
BRANCH  11  14
ATOM     14  CB  ARG A   1     -15.102  -3.287  -5.205  0.00  0.00    +0.030 C 
BRANCH  14  15
ATOM     15  CG  ARG A   1     -15.910  -4.309  -4.426  0.00  0.00    +0.045 C 
BRANCH  15  16
ATOM     16  CD  ARG A   1     -15.377  -5.735  -4.584  0.00  0.00    +0.174 C 
BRANCH  16  17
ATOM     17  NE  ARG A   1     -16.034  -6.630  -3.627  0.00  0.00    -0.265 N 
ATOM     18  CZ  ARG A   1     -15.633  -6.814  -2.371  0.00  0.00    +0.342 C 
ATOM     19  NH2 ARG A   1     -16.318  -7.614  -1.568  0.00  0.00    -0.292 N 
ATOM     20 HH21 ARG A   1     -16.005  -7.758  -0.587  0.00  0.00    +0.255 HD
ATOM     21 HH22 ARG A   1     -17.169  -8.098  -1.919  0.00  0.00    +0.255 HD
ATOM     22  NH1 ARG A   1     -14.561  -6.177  -1.905  0.00  0.00    -0.292 N 
ATOM     23 HH11 ARG A   1     -14.254  -6.326  -0.923  0.00  0.00    +0.255 HD
ATOM     24 HH12 ARG A   1     -14.031  -5.530  -2.523  0.00  0.00    +0.255 HD
ATOM     25  HE  ARG A   1     -16.870  -7.157  -3.951  0.00  0.00    +0.259 HD
ENDBRANCH  16  17
ENDBRANCH  15  16
ENDBRANCH  14  15
ENDBRANCH  11  14
ENDBRANCH   7  11
ENDBRANCH   6   8
BRANCH   6  26
ATOM     26  CB  ASN A   2     -20.264  -2.545  -4.251  0.00  0.00    +0.114 C 
BRANCH  26  27
ATOM     27  CG  ASN A   2     -20.243  -3.867  -5.008  0.00  0.00    +0.222 C 
ATOM     28  ND2 ASN A   2     -20.149  -4.970  -4.272  0.00  0.00    -0.329 N 
ATOM     29 HD21 ASN A   2     -20.102  -4.901  -3.235  0.00  0.00    +0.145 HD
ATOM     30 HD22 ASN A   2     -20.123  -5.902  -4.733  0.00  0.00    +0.145 HD
ATOM     31  OD1 ASN A   2     -20.302  -3.893  -6.237  0.00  0.00    -0.275 OA
ENDBRANCH  26  27
ENDBRANCH   6  26
ENDBRANCH   2   6
ENDBRANCH   1   4
BRANCH   1  32
ATOM     32  C   ILE A   3     -18.835   2.961  -5.582  0.00  0.00    +0.241 C 
ATOM     33  O   ILE A   3     -17.709   2.724  -6.014  0.00  0.00    -0.273 OA
ATOM     34  N   LEU A   4     -19.674   3.793  -6.189  0.00  0.00    -0.297 N 
ATOM     35  H   LEU A   4     -20.625   3.936  -5.792  0.00  0.00    +0.150 HD
BRANCH  34  36
ATOM     36  CA  LEU A   4     -19.293   4.508  -7.396  0.00  0.00    +0.149 C 
BRANCH  36  37
ATOM     37  C   LEU A   4     -19.144   6.003  -7.122  0.00  0.00    +0.241 C 
ATOM     38  O   LEU A   4     -19.893   6.572  -6.328  0.00  0.00    -0.273 OA
ATOM     39  N   LEU A   5     -18.186   6.633  -7.793  0.00  0.00    -0.297 N 
ATOM     40  H   LEU A   5     -17.537   6.080  -8.389  0.00  0.00    +0.150 HD
BRANCH  39  41
ATOM     41  CA  LEU A   5     -18.020   8.083  -7.716  0.00  0.00    +0.149 C 
BRANCH  41  42
ATOM     42  C   LEU A   5     -18.457   8.760  -9.016  0.00  0.00    +0.241 C 
ATOM     43  N   SER A   6     -19.404   9.687  -8.915  0.00  0.00    -0.296 N 
ATOM     44  H   SER A   6     -19.867   9.851  -7.998  0.00  0.00    +0.150 HD
ATOM     45  O   LEU A   5     -17.953   8.447 -10.091  0.00  0.00    -0.273 OA
BRANCH  43  46
ATOM     46  CA  SER A   6     -19.802  10.479 -10.079  0.00  0.00    +0.166 C 
BRANCH  46  47
ATOM     47  CB  SER A   6     -19.351  11.925  -9.892  0.00  0.00    +0.229 C 
ATOM     48  OG  SER A   6     -18.507  12.204  -9.043  0.00  0.00    -0.286 OA
ENDBRANCH  46  47
BRANCH  46  49
ATOM     49  C   SER A   6     -21.320  10.416 -10.291  0.00  0.00    +0.165 C 
BRANCH  49  50
ATOM     50  O   SER A   6     -22.015  11.019  -9.219  0.00  0.00    -0.380 OA
ATOM     51  H   SER A   6     -21.746  11.969  -9.146  0.00  0.00    +0.211 HD
ENDBRANCH  49  50
ENDBRANCH  46  49
ENDBRANCH  43  46
ENDBRANCH  41  42
BRANCH  41  52
ATOM     52  CB  LEU A   5     -16.555   8.440  -7.422  0.00  0.00    +0.029 C 
BRANCH  52  53
ATOM     53  CG  LEU A   5     -16.205   9.937  -7.440  0.00  0.00    +0.002 C 
ATOM     54  CD2 LEU A   5     -16.945  10.662  -6.310  0.00  0.00    +0.000 C 
ATOM     55  CD1 LEU A   5     -14.695  10.114  -7.279  0.00  0.00    +0.000 C 
ENDBRANCH  52  53
ENDBRANCH  41  52
ENDBRANCH  39  41
ENDBRANCH  36  37
BRANCH  36  56
ATOM     56  CB  LEU A   4     -20.351   4.302  -8.477  0.00  0.00    +0.029 C 
BRANCH  56  57
ATOM     57  CG  LEU A   4     -20.638   2.866  -8.897  0.00  0.00    +0.002 C 
ATOM     58  CD2 LEU A   4     -21.956   2.836  -9.659  0.00  0.00    +0.000 C 
ATOM     59  CD1 LEU A   4     -19.497   2.329  -9.751  0.00  0.00    +0.000 C 
ENDBRANCH  56  57
ENDBRANCH  36  56
ENDBRANCH  34  36
ENDBRANCH   1  32
BRANCH   1  60
ATOM     60  CB  ILE A   3     -18.701   2.952  -3.072  0.00  0.00    +0.027 C 
ATOM     61  CG2 ILE A   3     -19.091   4.433  -3.020  0.00  0.00    +0.002 C 
BRANCH  60  62
ATOM     62  CG1 ILE A   3     -19.122   2.224  -1.789  0.00  0.00    +0.002 C 
ATOM     63  CD1 ILE A   3     -20.647   2.213  -1.528  0.00  0.00    +0.000 C 
ENDBRANCH  60  62
ENDBRANCH   1  60
TORSDOF 26
REMARK  Name = ../refined-set-2016/4agc/4agc_pocket.pdb
REMARK  228 active torsions:
REMARK  status: ('A' for Active; 'I' for Inactive)
REMARK    1  A    between atoms: _1  and  _3
REMARK    2  A    between atoms: _3  and  _4
REMARK    3  A    between atoms: _3  and  _6
REMARK    4  A    between atoms: _6  and  _7
REMARK    5  A    between atoms: _10  and  _12
REMARK    6  A    between atoms: _12  and  _13
REMARK    7  A    between atoms: _12  and  _15
REMARK    8  A    between atoms: _15  and  _16
REMARK    9  A    between atoms: _18  and  _20
REMARK   10  A    between atoms: _20  and  _21
REMARK   11  A    between atoms: _20  and  _23
REMARK   12  A    between atoms: _23  and  _24
REMARK   13  A    between atoms: _27  and  _29
REMARK   14  A    between atoms: _29  and  _30
REMARK   15  A    between atoms: _29  and  _32
REMARK   16  A    between atoms: _32  and  _33
REMARK   17  A    between atoms: _33  and  _34
REMARK   18  A    between atoms: _34  and  _35
REMARK   19  A    between atoms: _35  and  _36
REMARK   20  A    between atoms: _41  and  _42
REMARK   21  A    between atoms: _47  and  _49
REMARK   22  A    between atoms: _49  and  _50
REMARK   23  A    between atoms: _49  and  _52
REMARK   24  A    between atoms: _52  and  _53
REMARK   25  A    between atoms: _56  and  _58
REMARK   26  A    between atoms: _58  and  _59
REMARK   27  A    between atoms: _61  and  _63
REMARK   28  A    between atoms: _63  and  _64
REMARK   29  A    between atoms: _63  and  _66
REMARK   30  A    between atoms: _66  and  _67
REMARK   31  A    between atoms: _67  and  _68
REMARK   32  A    between atoms: _73  and  _75
REMARK   33  A    between atoms: _75  and  _76
REMARK   34  A    between atoms: _75  and  _78
REMARK   35  A    between atoms: _81  and  _83
REMARK   36  A    between atoms: _83  and  _84
REMARK   37  A    between atoms: _83  and  _86
REMARK   38  A    between atoms: _86  and  _87
REMARK   39  A    between atoms: _90  and  _92
REMARK   40  A    between atoms: _92  and  _93
REMARK   41  A    between atoms: _92  and  _95
REMARK   42  A    between atoms: _95  and  _96
REMARK   43  A    between atoms: _96  and  _97
REMARK   44  A    between atoms: _100  and  _102
REMARK   45  A    between atoms: _102  and  _103
REMARK   46  A    between atoms: _106  and  _108
REMARK   47  A    between atoms: _108  and  _109
REMARK   48  A    between atoms: _108  and  _111
REMARK   49  A    between atoms: _111  and  _112
REMARK   50  A    between atoms: _115  and  _117
REMARK   51  A    between atoms: _117  and  _118
REMARK   52  A    between atoms: _117  and  _120
REMARK   53  A    between atoms: _123  and  _125
REMARK   54  A    between atoms: _125  and  _126
REMARK   55  A    between atoms: _129  and  _131
REMARK   56  A    between atoms: _131  and  _132
REMARK   57  A    between atoms: _131  and  _134
REMARK   58  A    between atoms: _137  and  _139
REMARK   59  A    between atoms: _139  and  _140
REMARK   60  A    between atoms: _139  and  _142
REMARK   61  A    between atoms: _142  and  _143
REMARK   62  A    between atoms: _143  and  _144
REMARK   63  A    between atoms: _144  and  _145
REMARK   64  A    between atoms: _145  and  _146
REMARK   65  A    between atoms: _150  and  _152
REMARK   66  A    between atoms: _152  and  _153
REMARK   67  A    between atoms: _152  and  _155
REMARK   68  A    between atoms: _155  and  _156
REMARK   69  A    between atoms: _156  and  _157
REMARK   70  A    between atoms: _159  and  _161
REMARK   71  A    between atoms: _161  and  _162
REMARK   72  A    between atoms: _161  and  _164
REMARK   73  A    between atoms: _164  and  _165
REMARK   74  A    between atoms: _168  and  _170
REMARK   75  A    between atoms: _170  and  _171
REMARK   76  A    between atoms: _170  and  _173
REMARK   77  A    between atoms: _173  and  _174
REMARK   78  A    between atoms: _174  and  _175
REMARK   79  A    between atoms: _178  and  _180
REMARK   80  A    between atoms: _180  and  _181
REMARK   81  A    between atoms: _180  and  _183
REMARK   82  A    between atoms: _183  and  _184
REMARK   83  A    between atoms: _187  and  _189
REMARK   84  A    between atoms: _189  and  _190
REMARK   85  A    between atoms: _189  and  _192
REMARK   86  A    between atoms: _192  and  _193
REMARK   87  A    between atoms: _196  and  _198
REMARK   88  A    between atoms: _198  and  _199
REMARK   89  A    between atoms: _198  and  _201
REMARK   90  A    between atoms: _201  and  _202
REMARK   91  A    between atoms: _205  and  _207
REMARK   92  A    between atoms: _207  and  _208
REMARK   93  A    between atoms: _207  and  _210
REMARK   94  A    between atoms: _210  and  _211
REMARK   95  A    between atoms: _214  and  _216
REMARK   96  A    between atoms: _216  and  _217
REMARK   97  A    between atoms: _216  and  _219
REMARK   98  A    between atoms: _222  and  _224
REMARK   99  A    between atoms: _224  and  _225
REMARK  100  A    between atoms: _224  and  _227
REMARK  101  A    between atoms: _230  and  _232
REMARK  102  A    between atoms: _232  and  _233
REMARK  103  A    between atoms: _232  and  _235
REMARK  104  A    between atoms: _235  and  _236
REMARK  105  A    between atoms: _241  and  _243
REMARK  106  A    between atoms: _243  and  _244
REMARK  107  A    between atoms: _243  and  _246
REMARK  108  A    between atoms: _246  and  _247
REMARK  109  A    between atoms: _250  and  _252
REMARK  110  A    between atoms: _252  and  _253
REMARK  111  A    between atoms: _252  and  _255
REMARK  112  A    between atoms: _255  and  _256
REMARK  113  A    between atoms: _259  and  _261
REMARK  114  A    between atoms: _261  and  _262
REMARK  115  A    between atoms: _264  and  _266
REMARK  116  A    between atoms: _266  and  _267
REMARK  117  A    between atoms: _266  and  _269
REMARK  118  A    between atoms: _269  and  _270
REMARK  119  A    between atoms: _270  and  _271
REMARK  120  A    between atoms: _273  and  _275
REMARK  121  A    between atoms: _275  and  _276
REMARK  122  A    between atoms: _275  and  _278
REMARK  123  A    between atoms: _281  and  _283
REMARK  124  A    between atoms: _283  and  _284
REMARK  125  A    between atoms: _283  and  _286
REMARK  126  A    between atoms: _286  and  _287
REMARK  127  A    between atoms: _290  and  _292
REMARK  128  A    between atoms: _292  and  _293
REMARK  129  A    between atoms: _292  and  _295
REMARK  130  A    between atoms: _298  and  _300
REMARK  131  A    between atoms: _300  and  _301
REMARK  132  A    between atoms: _300  and  _303
REMARK  133  A    between atoms: _303  and  _304
REMARK  134  A    between atoms: _304  and  _305
REMARK  135  A    between atoms: _308  and  _310
REMARK  136  A    between atoms: _310  and  _311
REMARK  137  A    between atoms: _310  and  _313
REMARK  138  A    between atoms: _313  and  _314
REMARK  139  A    between atoms: _320  and  _322
REMARK  140  A    between atoms: _322  and  _323
REMARK  141  A    between atoms: _322  and  _325
REMARK  142  A    between atoms: _327  and  _329
REMARK  143  A    between atoms: _329  and  _330
REMARK  144  A    between atoms: _329  and  _332
REMARK  145  A    between atoms: _332  and  _333
REMARK  146  A    between atoms: _333  and  _334
REMARK  147  A    between atoms: _334  and  _335
REMARK  148  A    between atoms: _335  and  _336
REMARK  149  A    between atoms: _340  and  _342
REMARK  150  A    between atoms: _342  and  _343
REMARK  151  A    between atoms: _342  and  _345
REMARK  152  A    between atoms: _345  and  _346
REMARK  153  A    between atoms: _352  and  _354
REMARK  154  A    between atoms: _354  and  _355
REMARK  155  A    between atoms: _357  and  _359
REMARK  156  A    between atoms: _359  and  _360
REMARK  157  A    between atoms: _359  and  _362
REMARK  158  A    between atoms: _362  and  _363
REMARK  159  A    between atoms: _368  and  _370
REMARK  160  A    between atoms: _370  and  _371
REMARK  161  A    between atoms: _370  and  _373
REMARK  162  A    between atoms: _373  and  _374
REMARK  163  A    between atoms: _377  and  _379
REMARK  164  A    between atoms: _379  and  _380
REMARK  165  A    between atoms: _379  and  _382
REMARK  166  A    between atoms: _382  and  _383
REMARK  167  A    between atoms: _388  and  _390
REMARK  168  A    between atoms: _390  and  _391
REMARK  169  A    between atoms: _390  and  _393
REMARK  170  A    between atoms: _393  and  _394
REMARK  171  A    between atoms: _394  and  _395
REMARK  172  A    between atoms: _395  and  _396
REMARK  173  A    between atoms: _405  and  _407
REMARK  174  A    between atoms: _407  and  _408
REMARK  175  A    between atoms: _407  and  _410
REMARK  176  A    between atoms: _410  and  _411
REMARK  177  A    between atoms: _416  and  _418
REMARK  178  A    between atoms: _418  and  _419
REMARK  179  A    between atoms: _418  and  _421
REMARK  180  A    between atoms: _421  and  _422
REMARK  181  A    between atoms: _425  and  _427
REMARK  182  A    between atoms: _427  and  _428
REMARK  183  A    between atoms: _427  and  _430
REMARK  184  A    between atoms: _430  and  _431
REMARK  185  A    between atoms: _434  and  _436
REMARK  186  A    between atoms: _436  and  _437
REMARK  187  A    between atoms: _436  and  _439
REMARK  188  A    between atoms: _439  and  _440
REMARK  189  A    between atoms: _443  and  _445
REMARK  190  A    between atoms: _445  and  _446
REMARK  191  A    between atoms: _445  and  _448
REMARK  192  A    between atoms: _448  and  _449
REMARK  193  A    between atoms: _451  and  _453
REMARK  194  A    between atoms: _453  and  _454
REMARK  195  A    between atoms: _453  and  _456
REMARK  196  A    between atoms: _456  and  _457
REMARK  197  A    between atoms: _457  and  _458
REMARK  198  A    between atoms: _458  and  _459
REMARK  199  A    between atoms: _459  and  _460
REMARK  200  A    between atoms: _464  and  _466
REMARK  201  A    between atoms: _466  and  _467
REMARK  202  A    between atoms: _466  and  _469
REMARK  203  A    between atoms: _469  and  _470
REMARK  204  A    between atoms: _473  and  _475
REMARK  205  A    between atoms: _475  and  _476
REMARK  206  A    between atoms: _475  and  _478
REMARK  207  A    between atoms: _480  and  _482
REMARK  208  A    between atoms: _482  and  _483
REMARK  209  A    between atoms: _482  and  _485
REMARK  210  A    between atoms: _485  and  _486
REMARK  211  A    between atoms: _489  and  _491
REMARK  212  A    between atoms: _491  and  _492
REMARK  213  A    between atoms: _491  and  _494
REMARK  214  A    between atoms: _494  and  _495
REMARK  215  A    between atoms: _501  and  _503
REMARK  216  A    between atoms: _503  and  _504
REMARK  217  A    between atoms: _506  and  _508
REMARK  218  A    between atoms: _508  and  _509
REMARK  219  A    between atoms: _508  and  _511
REMARK  220  A    between atoms: _511  and  _512
REMARK  221  A    between atoms: _515  and  _517
REMARK  222  A    between atoms: _517  and  _518
REMARK  223  A    between atoms: _521  and  _523
REMARK  224  A    between atoms: _523  and  _524
REMARK  225  A    between atoms: _523  and  _526
REMARK  226  A    between atoms: _526  and  _527
REMARK  227  A    between atoms: _527  and  _528
REMARK  228  A    between atoms: _528  and  _529
REMARK                            x       y       z     vdW  Elec       q    Type
REMARK                         _______ _______ _______ _____ _____    ______ ____
ROOT
ATOM      1  CA  PHE A   5     -21.990  -5.146 -10.019  0.00  0.00    +0.153 C 
ENDROOT
BRANCH   1   2
ATOM      2  C   PHE A   5     -22.665  -6.499 -10.232  0.00  0.00    +0.241 C 
ATOM      3  N   GLY A   6     -22.716  -7.300  -9.172  0.00  0.00    -0.295 N 
ATOM      4  H   GLY A   6     -22.234  -7.018  -8.295  0.00  0.00    +0.150 HD
ATOM      5  O   PHE A   5     -23.145  -6.796 -11.322  0.00  0.00    -0.273 OA
BRANCH   3   6
ATOM      6  CA  GLY A   6     -23.434  -8.562  -9.219  0.00  0.00    +0.176 C 
BRANCH   6   7
ATOM      7  C   GLY A   6     -22.925  -9.495 -10.300  0.00  0.00    +0.243 C 
ATOM      8  O   GLY A   6     -21.775  -9.915 -10.278  0.00  0.00    -0.273 OA
ATOM      9  N   LEU A   7     -23.791  -9.808 -11.256  0.00  0.00    -0.297 N 
ATOM     10  H   LEU A   7     -24.750  -9.408 -11.217  0.00  0.00    +0.150 HD
BRANCH   9  11
ATOM     11  CA  LEU A   7     -23.441 -10.694 -12.357  0.00  0.00    +0.149 C 
BRANCH  11  12
ATOM     12  C   LEU A   7     -22.299 -10.131 -13.194  0.00  0.00    +0.241 C 
ATOM     13  N   ALA A   8     -22.126  -8.811 -13.163  0.00  0.00    -0.297 N 
ATOM     14  H   ALA A   8     -22.729  -8.231 -12.545  0.00  0.00    +0.150 HD
ATOM     15  O   LEU A   7     -21.591 -10.880 -13.863  0.00  0.00    -0.273 OA
BRANCH  13  16
ATOM     16  CA  ALA A   8     -21.105  -8.163 -13.981  0.00  0.00    +0.149 C 
ATOM     17  CB  ALA A   8     -21.563  -6.763 -14.381  0.00  0.00    +0.031 C 
BRANCH  16  18
ATOM     18  C   ALA A   8     -19.755  -8.092 -13.267  0.00  0.00    +0.241 C 
ATOM     19  N   ARG A   9     -19.604  -8.869 -12.207  0.00  0.00    -0.298 N 
ATOM     20  H   ARG A   9     -20.433  -9.327 -11.776  0.00  0.00    +0.150 HD
ATOM     21  O   ALA A   8     -18.870  -7.340 -13.661  0.00  0.00    -0.273 OA
BRANCH  19  22
ATOM     22  CA  ARG A   9     -18.280  -9.084 -11.643  0.00  0.00    +0.137 C 
BRANCH  22  23
ATOM     23  C   ARG A   9     -17.960 -10.566 -11.639  0.00  0.00    +0.227 C 
ATOM     24  O   ARG A   9     -18.810 -11.392 -11.320  0.00  0.00    -0.286 OA
ENDBRANCH  22  23
BRANCH  22  25
ATOM     25  CB  ARG A   9     -18.184  -8.543 -10.214  0.00  0.00    +0.031 C 
BRANCH  25  26
ATOM     26  CG  ARG A   9     -16.785  -8.714  -9.636  0.00  0.00    +0.045 C 
BRANCH  26  27
ATOM     27  CD  ARG A   9     -16.677  -8.203  -8.230  0.00  0.00    +0.174 C 
BRANCH  27  28
ATOM     28  NE  ARG A   9     -16.734  -6.748  -8.163  0.00  0.00    -0.265 N 
ATOM     29  CZ  ARG A   9     -17.717  -6.080  -7.573  0.00  0.00    +0.342 C 
ATOM     30  NH2 ARG A   9     -18.720  -6.744  -7.010  0.00  0.00    -0.292 N 
ATOM     31 HH21 ARG A   9     -19.492  -6.224  -6.547  0.00  0.00    +0.255 HD
ATOM     32 HH22 ARG A   9     -18.733  -7.784  -7.033  0.00  0.00    +0.255 HD
ATOM     33  NH1 ARG A   9     -17.702  -4.757  -7.547  0.00  0.00    -0.292 N 
ATOM     34 HH11 ARG A   9     -18.474  -4.237  -7.084  0.00  0.00    +0.255 HD
ATOM     35 HH12 ARG A   9     -16.918  -4.237  -7.990  0.00  0.00    +0.255 HD
ATOM     36  HE  ARG A   9     -15.963  -6.204  -8.601  0.00  0.00    +0.259 HD
ENDBRANCH  27  28
ENDBRANCH  26  27
ENDBRANCH  25  26
ENDBRANCH  22  25
ENDBRANCH  19  22
ENDBRANCH  16  18
ENDBRANCH  13  16
ENDBRANCH  11  12
BRANCH  11  37
ATOM     37  CB  LEU A   7     -24.658 -10.921 -13.263  0.00  0.00    +0.029 C 
BRANCH  37  38
ATOM     38  CG  LEU A   7     -25.782 -11.845 -12.790  0.00  0.00    +0.002 C 
ATOM     39  CD2 LEU A   7     -26.310 -11.385 -11.448  0.00  0.00    +0.000 C 
ATOM     40  CD1 LEU A   7     -25.264 -13.270 -12.696  0.00  0.00    +0.000 C 
ENDBRANCH  37  38
ENDBRANCH  11  37
ENDBRANCH   9  11
ENDBRANCH   6   7
ENDBRANCH   3   6
ENDBRANCH   1   2
BRANCH   1  42
ATOM     41  C   ASP A   4     -23.574  -4.378  -8.344  0.00  0.00    +0.241 C 
ATOM     42  N   PHE A   5     -22.320  -4.655  -8.685  0.00  0.00    -0.297 N 
ATOM     43  H   PHE A   5     -21.560  -4.519  -7.988  0.00  0.00    +0.150 HD
ATOM     44  O   ASP A   4     -24.519  -4.476  -9.132  0.00  0.00    -0.273 OA
BRANCH  41  45
ATOM     45  CA  ASP A   4     -23.800  -3.902  -6.914  0.00  0.00    +0.160 C 
BRANCH  45  48
ATOM     46  C   CYS A   3     -24.035  -1.646  -6.027  0.00  0.00    +0.242 C 
ATOM     47  O   CYS A   3     -23.588  -1.961  -4.927  0.00  0.00    -0.273 OA
ATOM     48  N   ASP A   4     -24.304  -2.537  -6.972  0.00  0.00    -0.297 N 
ATOM     49  H   ASP A   4     -24.893  -2.252  -7.780  0.00  0.00    +0.150 HD
BRANCH  46  50
ATOM     50  CA  CYS A   3     -24.335  -0.183  -6.366  0.00  0.00    +0.160 C 
BRANCH  50  52
ATOM     51  C   ILE A   2     -24.556   1.734  -4.886  0.00  0.00    +0.241 C 
ATOM     52  N   CYS A   3     -23.871   0.662  -5.274  0.00  0.00    -0.296 N 
ATOM     53  H   CYS A   3     -22.984   0.422  -4.787  0.00  0.00    +0.150 HD
ATOM     54  O   ILE A   2     -25.554   2.144  -5.486  0.00  0.00    -0.273 OA
BRANCH  51  55
ATOM     55  CA  ILE A   2     -24.027   2.469  -3.657  0.00  0.00    +0.148 C 
BRANCH  55  57
ATOM     56  C   LYS A   1     -23.244   4.496  -4.753  0.00  0.00    +0.238 C 
ATOM     57  N   ILE A   2     -24.063   3.902  -3.900  0.00  0.00    -0.297 N 
ATOM     58  H   ILE A   2     -24.757   4.481  -3.385  0.00  0.00    +0.150 HD
ATOM     59  O   LYS A   1     -22.314   3.915  -5.319  0.00  0.00    -0.274 OA
BRANCH  56  60
ATOM     60  CA  LYS A   1     -23.528   5.968  -5.003  0.00  0.00    +0.145 C 
BRANCH  60  61
ATOM     61  N   LYS A   1     -22.324   6.770  -4.930  0.00  0.00    -0.238 NA
ATOM     62  H   LYS A   1     -21.488   6.476  -5.474  0.00  0.00    +0.142 HD
ENDBRANCH  60  61
BRANCH  60  63
ATOM     63  CB  LYS A   1     -24.185   6.149  -6.371  0.00  0.00    +0.026 C 
BRANCH  63  64
ATOM     64  CG  LYS A   1     -24.613   7.584  -6.618  0.00  0.00    -0.000 C 
BRANCH  64  65
ATOM     65  CD  LYS A   1     -24.954   7.836  -8.066  0.00  0.00    -0.024 C 
BRANCH  65  66
ATOM     66  CE  LYS A   1     -25.212   9.315  -8.285  0.00  0.00    -0.086 C 
BRANCH  66  67
ATOM     67  NZ  LYS A   1     -26.523   9.711  -7.715  0.00  0.00    +0.380 N 
ATOM     68  HZ1 LYS A   1     -26.528   9.517  -6.693  0.00  0.00    -0.089 HD
ATOM     69  HZ2 LYS A   1     -26.677  10.727  -7.877  0.00  0.00    -0.089 HD
ATOM     70  HZ3 LYS A   1     -27.279   9.166  -8.177  0.00  0.00    -0.089 HD
ENDBRANCH  66  67
ENDBRANCH  65  66
ENDBRANCH  64  65
ENDBRANCH  63  64
ENDBRANCH  60  63
ENDBRANCH  56  60
ENDBRANCH  55  57
BRANCH  55  71
ATOM     71  CB  ILE A   2     -24.899   2.115  -2.443  0.00  0.00    +0.027 C 
ATOM     72  CG2 ILE A   2     -24.974   0.593  -2.269  0.00  0.00    +0.002 C 
BRANCH  71  73
ATOM     73  CG1 ILE A   2     -24.346   2.819  -1.200  0.00  0.00    +0.002 C 
ATOM     74  CD1 ILE A   2     -25.329   2.886  -0.046  0.00  0.00    +0.000 C 
ENDBRANCH  71  73
ENDBRANCH  55  71
ENDBRANCH  51  55
ENDBRANCH  50  52
BRANCH  50  75
ATOM     75  CB  CYS A   3     -23.639   0.209  -7.682  0.00  0.00    +0.098 C 
ATOM     76  SG  CYS A   3     -21.906  -0.362  -7.814  0.00  0.00    -0.080 S 
ENDBRANCH  50  75
ENDBRANCH  46  50
ENDBRANCH  45  48
BRANCH  45  77
ATOM     77  CB  ASP A   4     -24.807  -4.821  -6.211  0.00  0.00    +0.143 C 
BRANCH  77  78
ATOM     78  CG  ASP A   4     -24.286  -6.245  -6.050  0.00  0.00    +0.367 C 
ATOM     79  OD2 ASP A   4     -25.107  -7.181  -5.978  0.00  0.00    -0.246 OA
ATOM     80  OD1 ASP A   4     -23.054  -6.429  -5.996  0.00  0.00    -0.246 OA
ENDBRANCH  77  78
ENDBRANCH  45  77
ENDBRANCH  41  45
ENDBRANCH   1  42
BRANCH   1  81
ATOM     81  CB  PHE A   5     -20.473  -5.283 -10.184  0.00  0.00    +0.055 C 
BRANCH  81  82
ATOM     82  CG  PHE A   5     -19.771  -3.981 -10.494  0.00  0.00    -0.020 A 
ATOM     83  CD2 PHE A   5     -19.599  -3.012  -9.513  0.00  0.00    -0.004 A 
ATOM     84  CE2 PHE A   5     -18.939  -1.831  -9.795  0.00  0.00    -0.000 A 
ATOM     85  CZ  PHE A   5     -18.442  -1.599 -11.058  0.00  0.00    -0.000 A 
ATOM     86  CE1 PHE A   5     -18.606  -2.554 -12.048  0.00  0.00    -0.000 A 
ATOM     87  CD1 PHE A   5     -19.268  -3.736 -11.763  0.00  0.00    -0.004 A 
ENDBRANCH  81  82
ENDBRANCH   1  81
TORSDOF 36
REMARK  Name = ../refined-set-2016/4agc/4agc_pocket.pdb
REMARK  228 active torsions:
REMARK  status: ('A' for Active; 'I' for Inactive)
REMARK    1  A    between atoms: _1  and  _3
REMARK    2  A    between atoms: _3  and  _4
REMARK    3  A    between atoms: _3  and  _6
REMARK    4  A    between atoms: _6  and  _7
REMARK    5  A    between atoms: _10  and  _12
REMARK    6  A    between atoms: _12  and  _13
REMARK    7  A    between atoms: _12  and  _15
REMARK    8  A    between atoms: _15  and  _16
REMARK    9  A    between atoms: _18  and  _20
REMARK   10  A    between atoms: _20  and  _21
REMARK   11  A    between atoms: _20  and  _23
REMARK   12  A    between atoms: _23  and  _24
REMARK   13  A    between atoms: _27  and  _29
REMARK   14  A    between atoms: _29  and  _30
REMARK   15  A    between atoms: _29  and  _32
REMARK   16  A    between atoms: _32  and  _33
REMARK   17  A    between atoms: _33  and  _34
REMARK   18  A    between atoms: _34  and  _35
REMARK   19  A    between atoms: _35  and  _36
REMARK   20  A    between atoms: _41  and  _42
REMARK   21  A    between atoms: _47  and  _49
REMARK   22  A    between atoms: _49  and  _50
REMARK   23  A    between atoms: _49  and  _52
REMARK   24  A    between atoms: _52  and  _53
REMARK   25  A    between atoms: _56  and  _58
REMARK   26  A    between atoms: _58  and  _59
REMARK   27  A    between atoms: _61  and  _63
REMARK   28  A    between atoms: _63  and  _64
REMARK   29  A    between atoms: _63  and  _66
REMARK   30  A    between atoms: _66  and  _67
REMARK   31  A    between atoms: _67  and  _68
REMARK   32  A    between atoms: _73  and  _75
REMARK   33  A    between atoms: _75  and  _76
REMARK   34  A    between atoms: _75  and  _78
REMARK   35  A    between atoms: _81  and  _83
REMARK   36  A    between atoms: _83  and  _84
REMARK   37  A    between atoms: _83  and  _86
REMARK   38  A    between atoms: _86  and  _87
REMARK   39  A    between atoms: _90  and  _92
REMARK   40  A    between atoms: _92  and  _93
REMARK   41  A    between atoms: _92  and  _95
REMARK   42  A    between atoms: _95  and  _96
REMARK   43  A    between atoms: _96  and  _97
REMARK   44  A    between atoms: _100  and  _102
REMARK   45  A    between atoms: _102  and  _103
REMARK   46  A    between atoms: _106  and  _108
REMARK   47  A    between atoms: _108  and  _109
REMARK   48  A    between atoms: _108  and  _111
REMARK   49  A    between atoms: _111  and  _112
REMARK   50  A    between atoms: _115  and  _117
REMARK   51  A    between atoms: _117  and  _118
REMARK   52  A    between atoms: _117  and  _120
REMARK   53  A    between atoms: _123  and  _125
REMARK   54  A    between atoms: _125  and  _126
REMARK   55  A    between atoms: _129  and  _131
REMARK   56  A    between atoms: _131  and  _132
REMARK   57  A    between atoms: _131  and  _134
REMARK   58  A    between atoms: _137  and  _139
REMARK   59  A    between atoms: _139  and  _140
REMARK   60  A    between atoms: _139  and  _142
REMARK   61  A    between atoms: _142  and  _143
REMARK   62  A    between atoms: _143  and  _144
REMARK   63  A    between atoms: _144  and  _145
REMARK   64  A    between atoms: _145  and  _146
REMARK   65  A    between atoms: _150  and  _152
REMARK   66  A    between atoms: _152  and  _153
REMARK   67  A    between atoms: _152  and  _155
REMARK   68  A    between atoms: _155  and  _156
REMARK   69  A    between atoms: _156  and  _157
REMARK   70  A    between atoms: _159  and  _161
REMARK   71  A    between atoms: _161  and  _162
REMARK   72  A    between atoms: _161  and  _164
REMARK   73  A    between atoms: _164  and  _165
REMARK   74  A    between atoms: _168  and  _170
REMARK   75  A    between atoms: _170  and  _171
REMARK   76  A    between atoms: _170  and  _173
REMARK   77  A    between atoms: _173  and  _174
REMARK   78  A    between atoms: _174  and  _175
REMARK   79  A    between atoms: _178  and  _180
REMARK   80  A    between atoms: _180  and  _181
REMARK   81  A    between atoms: _180  and  _183
REMARK   82  A    between atoms: _183  and  _184
REMARK   83  A    between atoms: _187  and  _189
REMARK   84  A    between atoms: _189  and  _190
REMARK   85  A    between atoms: _189  and  _192
REMARK   86  A    between atoms: _192  and  _193
REMARK   87  A    between atoms: _196  and  _198
REMARK   88  A    between atoms: _198  and  _199
REMARK   89  A    between atoms: _198  and  _201
REMARK   90  A    between atoms: _201  and  _202
REMARK   91  A    between atoms: _205  and  _207
REMARK   92  A    between atoms: _207  and  _208
REMARK   93  A    between atoms: _207  and  _210
REMARK   94  A    between atoms: _210  and  _211
REMARK   95  A    between atoms: _214  and  _216
REMARK   96  A    between atoms: _216  and  _217
REMARK   97  A    between atoms: _216  and  _219
REMARK   98  A    between atoms: _222  and  _224
REMARK   99  A    between atoms: _224  and  _225
REMARK  100  A    between atoms: _224  and  _227
REMARK  101  A    between atoms: _230  and  _232
REMARK  102  A    between atoms: _232  and  _233
REMARK  103  A    between atoms: _232  and  _235
REMARK  104  A    between atoms: _235  and  _236
REMARK  105  A    between atoms: _241  and  _243
REMARK  106  A    between atoms: _243  and  _244
REMARK  107  A    between atoms: _243  and  _246
REMARK  108  A    between atoms: _246  and  _247
REMARK  109  A    between atoms: _250  and  _252
REMARK  110  A    between atoms: _252  and  _253
REMARK  111  A    between atoms: _252  and  _255
REMARK  112  A    between atoms: _255  and  _256
REMARK  113  A    between atoms: _259  and  _261
REMARK  114  A    between atoms: _261  and  _262
REMARK  115  A    between atoms: _264  and  _266
REMARK  116  A    between atoms: _266  and  _267
REMARK  117  A    between atoms: _266  and  _269
REMARK  118  A    between atoms: _269  and  _270
REMARK  119  A    between atoms: _270  and  _271
REMARK  120  A    between atoms: _273  and  _275
REMARK  121  A    between atoms: _275  and  _276
REMARK  122  A    between atoms: _275  and  _278
REMARK  123  A    between atoms: _281  and  _283
REMARK  124  A    between atoms: _283  and  _284
REMARK  125  A    between atoms: _283  and  _286
REMARK  126  A    between atoms: _286  and  _287
REMARK  127  A    between atoms: _290  and  _292
REMARK  128  A    between atoms: _292  and  _293
REMARK  129  A    between atoms: _292  and  _295
REMARK  130  A    between atoms: _298  and  _300
REMARK  131  A    between atoms: _300  and  _301
REMARK  132  A    between atoms: _300  and  _303
REMARK  133  A    between atoms: _303  and  _304
REMARK  134  A    between atoms: _304  and  _305
REMARK  135  A    between atoms: _308  and  _310
REMARK  136  A    between atoms: _310  and  _311
REMARK  137  A    between atoms: _310  and  _313
REMARK  138  A    between atoms: _313  and  _314
REMARK  139  A    between atoms: _320  and  _322
REMARK  140  A    between atoms: _322  and  _323
REMARK  141  A    between atoms: _322  and  _325
REMARK  142  A    between atoms: _327  and  _329
REMARK  143  A    between atoms: _329  and  _330
REMARK  144  A    between atoms: _329  and  _332
REMARK  145  A    between atoms: _332  and  _333
REMARK  146  A    between atoms: _333  and  _334
REMARK  147  A    between atoms: _334  and  _335
REMARK  148  A    between atoms: _335  and  _336
REMARK  149  A    between atoms: _340  and  _342
REMARK  150  A    between atoms: _342  and  _343
REMARK  151  A    between atoms: _342  and  _345
REMARK  152  A    between atoms: _345  and  _346
REMARK  153  A    between atoms: _352  and  _354
REMARK  154  A    between atoms: _354  and  _355
REMARK  155  A    between atoms: _357  and  _359
REMARK  156  A    between atoms: _359  and  _360
REMARK  157  A    between atoms: _359  and  _362
REMARK  158  A    between atoms: _362  and  _363
REMARK  159  A    between atoms: _368  and  _370
REMARK  160  A    between atoms: _370  and  _371
REMARK  161  A    between atoms: _370  and  _373
REMARK  162  A    between atoms: _373  and  _374
REMARK  163  A    between atoms: _377  and  _379
REMARK  164  A    between atoms: _379  and  _380
REMARK  165  A    between atoms: _379  and  _382
REMARK  166  A    between atoms: _382  and  _383
REMARK  167  A    between atoms: _388  and  _390
REMARK  168  A    between atoms: _390  and  _391
REMARK  169  A    between atoms: _390  and  _393
REMARK  170  A    between atoms: _393  and  _394
REMARK  171  A    between atoms: _394  and  _395
REMARK  172  A    between atoms: _395  and  _396
REMARK  173  A    between atoms: _405  and  _407
REMARK  174  A    between atoms: _407  and  _408
REMARK  175  A    between atoms: _407  and  _410
REMARK  176  A    between atoms: _410  and  _411
REMARK  177  A    between atoms: _416  and  _418
REMARK  178  A    between atoms: _418  and  _419
REMARK  179  A    between atoms: _418  and  _421
REMARK  180  A    between atoms: _421  and  _422
REMARK  181  A    between atoms: _425  and  _427
REMARK  182  A    between atoms: _427  and  _428
REMARK  183  A    between atoms: _427  and  _430
REMARK  184  A    between atoms: _430  and  _431
REMARK  185  A    between atoms: _434  and  _436
REMARK  186  A    between atoms: _436  and  _437
REMARK  187  A    between atoms: _436  and  _439
REMARK  188  A    between atoms: _439  and  _440
REMARK  189  A    between atoms: _443  and  _445
REMARK  190  A    between atoms: _445  and  _446
REMARK  191  A    between atoms: _445  and  _448
REMARK  192  A    between atoms: _448  and  _449
REMARK  193  A    between atoms: _451  and  _453
REMARK  194  A    between atoms: _453  and  _454
REMARK  195  A    between atoms: _453  and  _456
REMARK  196  A    between atoms: _456  and  _457
REMARK  197  A    between atoms: _457  and  _458
REMARK  198  A    between atoms: _458  and  _459
REMARK  199  A    between atoms: _459  and  _460
REMARK  200  A    between atoms: _464  and  _466
REMARK  201  A    between atoms: _466  and  _467
REMARK  202  A    between atoms: _466  and  _469
REMARK  203  A    between atoms: _469  and  _470
REMARK  204  A    between atoms: _473  and  _475
REMARK  205  A    between atoms: _475  and  _476
REMARK  206  A    between atoms: _475  and  _478
REMARK  207  A    between atoms: _480  and  _482
REMARK  208  A    between atoms: _482  and  _483
REMARK  209  A    between atoms: _482  and  _485
REMARK  210  A    between atoms: _485  and  _486
REMARK  211  A    between atoms: _489  and  _491
REMARK  212  A    between atoms: _491  and  _492
REMARK  213  A    between atoms: _491  and  _494
REMARK  214  A    between atoms: _494  and  _495
REMARK  215  A    between atoms: _501  and  _503
REMARK  216  A    between atoms: _503  and  _504
REMARK  217  A    between atoms: _506  and  _508
REMARK  218  A    between atoms: _508  and  _509
REMARK  219  A    between atoms: _508  and  _511
REMARK  220  A    between atoms: _511  and  _512
REMARK  221  A    between atoms: _515  and  _517
REMARK  222  A    between atoms: _517  and  _518
REMARK  223  A    between atoms: _521  and  _523
REMARK  224  A    between atoms: _523  and  _524
REMARK  225  A    between atoms: _523  and  _526
REMARK  226  A    between atoms: _526  and  _527
REMARK  227  A    between atoms: _527  and  _528
REMARK  228  A    between atoms: _528  and  _529
REMARK                            x       y       z     vdW  Elec       q    Type
REMARK                         _______ _______ _______ _____ _____    ______ ____
ROOT
ATOM      1  O   HOH     1      -9.951   5.305 -11.205  0.00  0.00    +0.000 OA
ENDROOT
TORSDOF 0
REMARK  Name = ../refined-set-2016/4agc/4agc_pocket.pdb
REMARK  228 active torsions:
REMARK  status: ('A' for Active; 'I' for Inactive)
REMARK    1  A    between atoms: _1  and  _3
REMARK    2  A    between atoms: _3  and  _4
REMARK    3  A    between atoms: _3  and  _6
REMARK    4  A    between atoms: _6  and  _7
REMARK    5  A    between atoms: _10  and  _12
REMARK    6  A    between atoms: _12  and  _13
REMARK    7  A    between atoms: _12  and  _15
REMARK    8  A    between atoms: _15  and  _16
REMARK    9  A    between atoms: _18  and  _20
REMARK   10  A    between atoms: _20  and  _21
REMARK   11  A    between atoms: _20  and  _23
REMARK   12  A    between atoms: _23  and  _24
REMARK   13  A    between atoms: _27  and  _29
REMARK   14  A    between atoms: _29  and  _30
REMARK   15  A    between atoms: _29  and  _32
REMARK   16  A    between atoms: _32  and  _33
REMARK   17  A    between atoms: _33  and  _34
REMARK   18  A    between atoms: _34  and  _35
REMARK   19  A    between atoms: _35  and  _36
REMARK   20  A    between atoms: _41  and  _42
REMARK   21  A    between atoms: _47  and  _49
REMARK   22  A    between atoms: _49  and  _50
REMARK   23  A    between atoms: _49  and  _52
REMARK   24  A    between atoms: _52  and  _53
REMARK   25  A    between atoms: _56  and  _58
REMARK   26  A    between atoms: _58  and  _59
REMARK   27  A    between atoms: _61  and  _63
REMARK   28  A    between atoms: _63  and  _64
REMARK   29  A    between atoms: _63  and  _66
REMARK   30  A    between atoms: _66  and  _67
REMARK   31  A    between atoms: _67  and  _68
REMARK   32  A    between atoms: _73  and  _75
REMARK   33  A    between atoms: _75  and  _76
REMARK   34  A    between atoms: _75  and  _78
REMARK   35  A    between atoms: _81  and  _83
REMARK   36  A    between atoms: _83  and  _84
REMARK   37  A    between atoms: _83  and  _86
REMARK   38  A    between atoms: _86  and  _87
REMARK   39  A    between atoms: _90  and  _92
REMARK   40  A    between atoms: _92  and  _93
REMARK   41  A    between atoms: _92  and  _95
REMARK   42  A    between atoms: _95  and  _96
REMARK   43  A    between atoms: _96  and  _97
REMARK   44  A    between atoms: _100  and  _102
REMARK   45  A    between atoms: _102  and  _103
REMARK   46  A    between atoms: _106  and  _108
REMARK   47  A    between atoms: _108  and  _109
REMARK   48  A    between atoms: _108  and  _111
REMARK   49  A    between atoms: _111  and  _112
REMARK   50  A    between atoms: _115  and  _117
REMARK   51  A    between atoms: _117  and  _118
REMARK   52  A    between atoms: _117  and  _120
REMARK   53  A    between atoms: _123  and  _125
REMARK   54  A    between atoms: _125  and  _126
REMARK   55  A    between atoms: _129  and  _131
REMARK   56  A    between atoms: _131  and  _132
REMARK   57  A    between atoms: _131  and  _134
REMARK   58  A    between atoms: _137  and  _139
REMARK   59  A    between atoms: _139  and  _140
REMARK   60  A    between atoms: _139  and  _142
REMARK   61  A    between atoms: _142  and  _143
REMARK   62  A    between atoms: _143  and  _144
REMARK   63  A    between atoms: _144  and  _145
REMARK   64  A    between atoms: _145  and  _146
REMARK   65  A    between atoms: _150  and  _152
REMARK   66  A    between atoms: _152  and  _153
REMARK   67  A    between atoms: _152  and  _155
REMARK   68  A    between atoms: _155  and  _156
REMARK   69  A    between atoms: _156  and  _157
REMARK   70  A    between atoms: _159  and  _161
REMARK   71  A    between atoms: _161  and  _162
REMARK   72  A    between atoms: _161  and  _164
REMARK   73  A    between atoms: _164  and  _165
REMARK   74  A    between atoms: _168  and  _170
REMARK   75  A    between atoms: _170  and  _171
REMARK   76  A    between atoms: _170  and  _173
REMARK   77  A    between atoms: _173  and  _174
REMARK   78  A    between atoms: _174  and  _175
REMARK   79  A    between atoms: _178  and  _180
REMARK   80  A    between atoms: _180  and  _181
REMARK   81  A    between atoms: _180  and  _183
REMARK   82  A    between atoms: _183  and  _184
REMARK   83  A    between atoms: _187  and  _189
REMARK   84  A    between atoms: _189  and  _190
REMARK   85  A    between atoms: _189  and  _192
REMARK   86  A    between atoms: _192  and  _193
REMARK   87  A    between atoms: _196  and  _198
REMARK   88  A    between atoms: _198  and  _199
REMARK   89  A    between atoms: _198  and  _201
REMARK   90  A    between atoms: _201  and  _202
REMARK   91  A    between atoms: _205  and  _207
REMARK   92  A    between atoms: _207  and  _208
REMARK   93  A    between atoms: _207  and  _210
REMARK   94  A    between atoms: _210  and  _211
REMARK   95  A    between atoms: _214  and  _216
REMARK   96  A    between atoms: _216  and  _217
REMARK   97  A    between atoms: _216  and  _219
REMARK   98  A    between atoms: _222  and  _224
REMARK   99  A    between atoms: _224  and  _225
REMARK  100  A    between atoms: _224  and  _227
REMARK  101  A    between atoms: _230  and  _232
REMARK  102  A    between atoms: _232  and  _233
REMARK  103  A    between atoms: _232  and  _235
REMARK  104  A    between atoms: _235  and  _236
REMARK  105  A    between atoms: _241  and  _243
REMARK  106  A    between atoms: _243  and  _244
REMARK  107  A    between atoms: _243  and  _246
REMARK  108  A    between atoms: _246  and  _247
REMARK  109  A    between atoms: _250  and  _252
REMARK  110  A    between atoms: _252  and  _253
REMARK  111  A    between atoms: _252  and  _255
REMARK  112  A    between atoms: _255  and  _256
REMARK  113  A    between atoms: _259  and  _261
REMARK  114  A    between atoms: _261  and  _262
REMARK  115  A    between atoms: _264  and  _266
REMARK  116  A    between atoms: _266  and  _267
REMARK  117  A    between atoms: _266  and  _269
REMARK  118  A    between atoms: _269  and  _270
REMARK  119  A    between atoms: _270  and  _271
REMARK  120  A    between atoms: _273  and  _275
REMARK  121  A    between atoms: _275  and  _276
REMARK  122  A    between atoms: _275  and  _278
REMARK  123  A    between atoms: _281  and  _283
REMARK  124  A    between atoms: _283  and  _284
REMARK  125  A    between atoms: _283  and  _286
REMARK  126  A    between atoms: _286  and  _287
REMARK  127  A    between atoms: _290  and  _292
REMARK  128  A    between atoms: _292  and  _293
REMARK  129  A    between atoms: _292  and  _295
REMARK  130  A    between atoms: _298  and  _300
REMARK  131  A    between atoms: _300  and  _301
REMARK  132  A    between atoms: _300  and  _303
REMARK  133  A    between atoms: _303  and  _304
REMARK  134  A    between atoms: _304  and  _305
REMARK  135  A    between atoms: _308  and  _310
REMARK  136  A    between atoms: _310  and  _311
REMARK  137  A    between atoms: _310  and  _313
REMARK  138  A    between atoms: _313  and  _314
REMARK  139  A    between atoms: _320  and  _322
REMARK  140  A    between atoms: _322  and  _323
REMARK  141  A    between atoms: _322  and  _325
REMARK  142  A    between atoms: _327  and  _329
REMARK  143  A    between atoms: _329  and  _330
REMARK  144  A    between atoms: _329  and  _332
REMARK  145  A    between atoms: _332  and  _333
REMARK  146  A    between atoms: _333  and  _334
REMARK  147  A    between atoms: _334  and  _335
REMARK  148  A    between atoms: _335  and  _336
REMARK  149  A    between atoms: _340  and  _342
REMARK  150  A    between atoms: _342  and  _343
REMARK  151  A    between atoms: _342  and  _345
REMARK  152  A    between atoms: _345  and  _346
REMARK  153  A    between atoms: _352  and  _354
REMARK  154  A    between atoms: _354  and  _355
REMARK  155  A    between atoms: _357  and  _359
REMARK  156  A    between atoms: _359  and  _360
REMARK  157  A    between atoms: _359  and  _362
REMARK  158  A    between atoms: _362  and  _363
REMARK  159  A    between atoms: _368  and  _370
REMARK  160  A    between atoms: _370  and  _371
REMARK  161  A    between atoms: _370  and  _373
REMARK  162  A    between atoms: _373  and  _374
REMARK  163  A    between atoms: _377  and  _379
REMARK  164  A    between atoms: _379  and  _380
REMARK  165  A    between atoms: _379  and  _382
REMARK  166  A    between atoms: _382  and  _383
REMARK  167  A    between atoms: _388  and  _390
REMARK  168  A    between atoms: _390  and  _391
REMARK  169  A    between atoms: _390  and  _393
REMARK  170  A    between atoms: _393  and  _394
REMARK  171  A    between atoms: _394  and  _395
REMARK  172  A    between atoms: _395  and  _396
REMARK  173  A    between atoms: _405  and  _407
REMARK  174  A    between atoms: _407  and  _408
REMARK  175  A    between atoms: _407  and  _410
REMARK  176  A    between atoms: _410  and  _411
REMARK  177  A    between atoms: _416  and  _418
REMARK  178  A    between atoms: _418  and  _419
REMARK  179  A    between atoms: _418  and  _421
REMARK  180  A    between atoms: _421  and  _422
REMARK  181  A    between atoms: _425  and  _427
REMARK  182  A    between atoms: _427  and  _428
REMARK  183  A    between atoms: _427  and  _430
REMARK  184  A    between atoms: _430  and  _431
REMARK  185  A    between atoms: _434  and  _436
REMARK  186  A    between atoms: _436  and  _437
REMARK  187  A    between atoms: _436  and  _439
REMARK  188  A    between atoms: _439  and  _440
REMARK  189  A    between atoms: _443  and  _445
REMARK  190  A    between atoms: _445  and  _446
REMARK  191  A    between atoms: _445  and  _448
REMARK  192  A    between atoms: _448  and  _449
REMARK  193  A    between atoms: _451  and  _453
REMARK  194  A    between atoms: _453  and  _454
REMARK  195  A    between atoms: _453  and  _456
REMARK  196  A    between atoms: _456  and  _457
REMARK  197  A    between atoms: _457  and  _458
REMARK  198  A    between atoms: _458  and  _459
REMARK  199  A    between atoms: _459  and  _460
REMARK  200  A    between atoms: _464  and  _466
REMARK  201  A    between atoms: _466  and  _467
REMARK  202  A    between atoms: _466  and  _469
REMARK  203  A    between atoms: _469  and  _470
REMARK  204  A    between atoms: _473  and  _475
REMARK  205  A    between atoms: _475  and  _476
REMARK  206  A    between atoms: _475  and  _478
REMARK  207  A    between atoms: _480  and  _482
REMARK  208  A    between atoms: _482  and  _483
REMARK  209  A    between atoms: _482  and  _485
REMARK  210  A    between atoms: _485  and  _486
REMARK  211  A    between atoms: _489  and  _491
REMARK  212  A    between atoms: _491  and  _492
REMARK  213  A    between atoms: _491  and  _494
REMARK  214  A    between atoms: _494  and  _495
REMARK  215  A    between atoms: _501  and  _503
REMARK  216  A    between atoms: _503  and  _504
REMARK  217  A    between atoms: _506  and  _508
REMARK  218  A    between atoms: _508  and  _509
REMARK  219  A    between atoms: _508  and  _511
REMARK  220  A    between atoms: _511  and  _512
REMARK  221  A    between atoms: _515  and  _517
REMARK  222  A    between atoms: _517  and  _518
REMARK  223  A    between atoms: _521  and  _523
REMARK  224  A    between atoms: _523  and  _524
REMARK  225  A    between atoms: _523  and  _526
REMARK  226  A    between atoms: _526  and  _527
REMARK  227  A    between atoms: _527  and  _528
REMARK  228  A    between atoms: _528  and  _529
REMARK                            x       y       z     vdW  Elec       q    Type
REMARK                         _______ _______ _______ _____ _____    ______ ____
ROOT
ATOM      1  O   HOH     1     -10.765   2.749 -14.461  0.00  0.00    +0.000 OA
ENDROOT
TORSDOF 0
REMARK  Name = ../refined-set-2016/4agc/4agc_pocket.pdb
REMARK  228 active torsions:
REMARK  status: ('A' for Active; 'I' for Inactive)
REMARK    1  A    between atoms: _1  and  _3
REMARK    2  A    between atoms: _3  and  _4
REMARK    3  A    between atoms: _3  and  _6
REMARK    4  A    between atoms: _6  and  _7
REMARK    5  A    between atoms: _10  and  _12
REMARK    6  A    between atoms: _12  and  _13
REMARK    7  A    between atoms: _12  and  _15
REMARK    8  A    between atoms: _15  and  _16
REMARK    9  A    between atoms: _18  and  _20
REMARK   10  A    between atoms: _20  and  _21
REMARK   11  A    between atoms: _20  and  _23
REMARK   12  A    between atoms: _23  and  _24
REMARK   13  A    between atoms: _27  and  _29
REMARK   14  A    between atoms: _29  and  _30
REMARK   15  A    between atoms: _29  and  _32
REMARK   16  A    between atoms: _32  and  _33
REMARK   17  A    between atoms: _33  and  _34
REMARK   18  A    between atoms: _34  and  _35
REMARK   19  A    between atoms: _35  and  _36
REMARK   20  A    between atoms: _41  and  _42
REMARK   21  A    between atoms: _47  and  _49
REMARK   22  A    between atoms: _49  and  _50
REMARK   23  A    between atoms: _49  and  _52
REMARK   24  A    between atoms: _52  and  _53
REMARK   25  A    between atoms: _56  and  _58
REMARK   26  A    between atoms: _58  and  _59
REMARK   27  A    between atoms: _61  and  _63
REMARK   28  A    between atoms: _63  and  _64
REMARK   29  A    between atoms: _63  and  _66
REMARK   30  A    between atoms: _66  and  _67
REMARK   31  A    between atoms: _67  and  _68
REMARK   32  A    between atoms: _73  and  _75
REMARK   33  A    between atoms: _75  and  _76
REMARK   34  A    between atoms: _75  and  _78
REMARK   35  A    between atoms: _81  and  _83
REMARK   36  A    between atoms: _83  and  _84
REMARK   37  A    between atoms: _83  and  _86
REMARK   38  A    between atoms: _86  and  _87
REMARK   39  A    between atoms: _90  and  _92
REMARK   40  A    between atoms: _92  and  _93
REMARK   41  A    between atoms: _92  and  _95
REMARK   42  A    between atoms: _95  and  _96
REMARK   43  A    between atoms: _96  and  _97
REMARK   44  A    between atoms: _100  and  _102
REMARK   45  A    between atoms: _102  and  _103
REMARK   46  A    between atoms: _106  and  _108
REMARK   47  A    between atoms: _108  and  _109
REMARK   48  A    between atoms: _108  and  _111
REMARK   49  A    between atoms: _111  and  _112
REMARK   50  A    between atoms: _115  and  _117
REMARK   51  A    between atoms: _117  and  _118
REMARK   52  A    between atoms: _117  and  _120
REMARK   53  A    between atoms: _123  and  _125
REMARK   54  A    between atoms: _125  and  _126
REMARK   55  A    between atoms: _129  and  _131
REMARK   56  A    between atoms: _131  and  _132
REMARK   57  A    between atoms: _131  and  _134
REMARK   58  A    between atoms: _137  and  _139
REMARK   59  A    between atoms: _139  and  _140
REMARK   60  A    between atoms: _139  and  _142
REMARK   61  A    between atoms: _142  and  _143
REMARK   62  A    between atoms: _143  and  _144
REMARK   63  A    between atoms: _144  and  _145
REMARK   64  A    between atoms: _145  and  _146
REMARK   65  A    between atoms: _150  and  _152
REMARK   66  A    between atoms: _152  and  _153
REMARK   67  A    between atoms: _152  and  _155
REMARK   68  A    between atoms: _155  and  _156
REMARK   69  A    between atoms: _156  and  _157
REMARK   70  A    between atoms: _159  and  _161
REMARK   71  A    between atoms: _161  and  _162
REMARK   72  A    between atoms: _161  and  _164
REMARK   73  A    between atoms: _164  and  _165
REMARK   74  A    between atoms: _168  and  _170
REMARK   75  A    between atoms: _170  and  _171
REMARK   76  A    between atoms: _170  and  _173
REMARK   77  A    between atoms: _173  and  _174
REMARK   78  A    between atoms: _174  and  _175
REMARK   79  A    between atoms: _178  and  _180
REMARK   80  A    between atoms: _180  and  _181
REMARK   81  A    between atoms: _180  and  _183
REMARK   82  A    between atoms: _183  and  _184
REMARK   83  A    between atoms: _187  and  _189
REMARK   84  A    between atoms: _189  and  _190
REMARK   85  A    between atoms: _189  and  _192
REMARK   86  A    between atoms: _192  and  _193
REMARK   87  A    between atoms: _196  and  _198
REMARK   88  A    between atoms: _198  and  _199
REMARK   89  A    between atoms: _198  and  _201
REMARK   90  A    between atoms: _201  and  _202
REMARK   91  A    between atoms: _205  and  _207
REMARK   92  A    between atoms: _207  and  _208
REMARK   93  A    between atoms: _207  and  _210
REMARK   94  A    between atoms: _210  and  _211
REMARK   95  A    between atoms: _214  and  _216
REMARK   96  A    between atoms: _216  and  _217
REMARK   97  A    between atoms: _216  and  _219
REMARK   98  A    between atoms: _222  and  _224
REMARK   99  A    between atoms: _224  and  _225
REMARK  100  A    between atoms: _224  and  _227
REMARK  101  A    between atoms: _230  and  _232
REMARK  102  A    between atoms: _232  and  _233
REMARK  103  A    between atoms: _232  and  _235
REMARK  104  A    between atoms: _235  and  _236
REMARK  105  A    between atoms: _241  and  _243
REMARK  106  A    between atoms: _243  and  _244
REMARK  107  A    between atoms: _243  and  _246
REMARK  108  A    between atoms: _246  and  _247
REMARK  109  A    between atoms: _250  and  _252
REMARK  110  A    between atoms: _252  and  _253
REMARK  111  A    between atoms: _252  and  _255
REMARK  112  A    between atoms: _255  and  _256
REMARK  113  A    between atoms: _259  and  _261
REMARK  114  A    between atoms: _261  and  _262
REMARK  115  A    between atoms: _264  and  _266
REMARK  116  A    between atoms: _266  and  _267
REMARK  117  A    between atoms: _266  and  _269
REMARK  118  A    between atoms: _269  and  _270
REMARK  119  A    between atoms: _270  and  _271
REMARK  120  A    between atoms: _273  and  _275
REMARK  121  A    between atoms: _275  and  _276
REMARK  122  A    between atoms: _275  and  _278
REMARK  123  A    between atoms: _281  and  _283
REMARK  124  A    between atoms: _283  and  _284
REMARK  125  A    between atoms: _283  and  _286
REMARK  126  A    between atoms: _286  and  _287
REMARK  127  A    between atoms: _290  and  _292
REMARK  128  A    between atoms: _292  and  _293
REMARK  129  A    between atoms: _292  and  _295
REMARK  130  A    between atoms: _298  and  _300
REMARK  131  A    between atoms: _300  and  _301
REMARK  132  A    between atoms: _300  and  _303
REMARK  133  A    between atoms: _303  and  _304
REMARK  134  A    between atoms: _304  and  _305
REMARK  135  A    between atoms: _308  and  _310
REMARK  136  A    between atoms: _310  and  _311
REMARK  137  A    between atoms: _310  and  _313
REMARK  138  A    between atoms: _313  and  _314
REMARK  139  A    between atoms: _320  and  _322
REMARK  140  A    between atoms: _322  and  _323
REMARK  141  A    between atoms: _322  and  _325
REMARK  142  A    between atoms: _327  and  _329
REMARK  143  A    between atoms: _329  and  _330
REMARK  144  A    between atoms: _329  and  _332
REMARK  145  A    between atoms: _332  and  _333
REMARK  146  A    between atoms: _333  and  _334
REMARK  147  A    between atoms: _334  and  _335
REMARK  148  A    between atoms: _335  and  _336
REMARK  149  A    between atoms: _340  and  _342
REMARK  150  A    between atoms: _342  and  _343
REMARK  151  A    between atoms: _342  and  _345
REMARK  152  A    between atoms: _345  and  _346
REMARK  153  A    between atoms: _352  and  _354
REMARK  154  A    between atoms: _354  and  _355
REMARK  155  A    between atoms: _357  and  _359
REMARK  156  A    between atoms: _359  and  _360
REMARK  157  A    between atoms: _359  and  _362
REMARK  158  A    between atoms: _362  and  _363
REMARK  159  A    between atoms: _368  and  _370
REMARK  160  A    between atoms: _370  and  _371
REMARK  161  A    between atoms: _370  and  _373
REMARK  162  A    between atoms: _373  and  _374
REMARK  163  A    between atoms: _377  and  _379
REMARK  164  A    between atoms: _379  and  _380
REMARK  165  A    between atoms: _379  and  _382
REMARK  166  A    between atoms: _382  and  _383
REMARK  167  A    between atoms: _388  and  _390
REMARK  168  A    between atoms: _390  and  _391
REMARK  169  A    between atoms: _390  and  _393
REMARK  170  A    between atoms: _393  and  _394
REMARK  171  A    between atoms: _394  and  _395
REMARK  172  A    between atoms: _395  and  _396
REMARK  173  A    between atoms: _405  and  _407
REMARK  174  A    between atoms: _407  and  _408
REMARK  175  A    between atoms: _407  and  _410
REMARK  176  A    between atoms: _410  and  _411
REMARK  177  A    between atoms: _416  and  _418
REMARK  178  A    between atoms: _418  and  _419
REMARK  179  A    between atoms: _418  and  _421
REMARK  180  A    between atoms: _421  and  _422
REMARK  181  A    between atoms: _425  and  _427
REMARK  182  A    between atoms: _427  and  _428
REMARK  183  A    between atoms: _427  and  _430
REMARK  184  A    between atoms: _430  and  _431
REMARK  185  A    between atoms: _434  and  _436
REMARK  186  A    between atoms: _436  and  _437
REMARK  187  A    between atoms: _436  and  _439
REMARK  188  A    between atoms: _439  and  _440
REMARK  189  A    between atoms: _443  and  _445
REMARK  190  A    between atoms: _445  and  _446
REMARK  191  A    between atoms: _445  and  _448
REMARK  192  A    between atoms: _448  and  _449
REMARK  193  A    between atoms: _451  and  _453
REMARK  194  A    between atoms: _453  and  _454
REMARK  195  A    between atoms: _453  and  _456
REMARK  196  A    between atoms: _456  and  _457
REMARK  197  A    between atoms: _457  and  _458
REMARK  198  A    between atoms: _458  and  _459
REMARK  199  A    between atoms: _459  and  _460
REMARK  200  A    between atoms: _464  and  _466
REMARK  201  A    between atoms: _466  and  _467
REMARK  202  A    between atoms: _466  and  _469
REMARK  203  A    between atoms: _469  and  _470
REMARK  204  A    between atoms: _473  and  _475
REMARK  205  A    between atoms: _475  and  _476
REMARK  206  A    between atoms: _475  and  _478
REMARK  207  A    between atoms: _480  and  _482
REMARK  208  A    between atoms: _482  and  _483
REMARK  209  A    between atoms: _482  and  _485
REMARK  210  A    between atoms: _485  and  _486
REMARK  211  A    between atoms: _489  and  _491
REMARK  212  A    between atoms: _491  and  _492
REMARK  213  A    between atoms: _491  and  _494
REMARK  214  A    between atoms: _494  and  _495
REMARK  215  A    between atoms: _501  and  _503
REMARK  216  A    between atoms: _503  and  _504
REMARK  217  A    between atoms: _506  and  _508
REMARK  218  A    between atoms: _508  and  _509
REMARK  219  A    between atoms: _508  and  _511
REMARK  220  A    between atoms: _511  and  _512
REMARK  221  A    between atoms: _515  and  _517
REMARK  222  A    between atoms: _517  and  _518
REMARK  223  A    between atoms: _521  and  _523
REMARK  224  A    between atoms: _523  and  _524
REMARK  225  A    between atoms: _523  and  _526
REMARK  226  A    between atoms: _526  and  _527
REMARK  227  A    between atoms: _527  and  _528
REMARK  228  A    between atoms: _528  and  _529
REMARK                            x       y       z     vdW  Elec       q    Type
REMARK                         _______ _______ _______ _____ _____    ______ ____
ROOT
ATOM      1  O   HOH     1     -12.075  -1.600 -14.725  0.00  0.00    +0.000 OA
ENDROOT
TORSDOF 0
REMARK  Name = ../refined-set-2016/4agc/4agc_pocket.pdb
REMARK  228 active torsions:
REMARK  status: ('A' for Active; 'I' for Inactive)
REMARK    1  A    between atoms: _1  and  _3
REMARK    2  A    between atoms: _3  and  _4
REMARK    3  A    between atoms: _3  and  _6
REMARK    4  A    between atoms: _6  and  _7
REMARK    5  A    between atoms: _10  and  _12
REMARK    6  A    between atoms: _12  and  _13
REMARK    7  A    between atoms: _12  and  _15
REMARK    8  A    between atoms: _15  and  _16
REMARK    9  A    between atoms: _18  and  _20
REMARK   10  A    between atoms: _20  and  _21
REMARK   11  A    between atoms: _20  and  _23
REMARK   12  A    between atoms: _23  and  _24
REMARK   13  A    between atoms: _27  and  _29
REMARK   14  A    between atoms: _29  and  _30
REMARK   15  A    between atoms: _29  and  _32
REMARK   16  A    between atoms: _32  and  _33
REMARK   17  A    between atoms: _33  and  _34
REMARK   18  A    between atoms: _34  and  _35
REMARK   19  A    between atoms: _35  and  _36
REMARK   20  A    between atoms: _41  and  _42
REMARK   21  A    between atoms: _47  and  _49
REMARK   22  A    between atoms: _49  and  _50
REMARK   23  A    between atoms: _49  and  _52
REMARK   24  A    between atoms: _52  and  _53
REMARK   25  A    between atoms: _56  and  _58
REMARK   26  A    between atoms: _58  and  _59
REMARK   27  A    between atoms: _61  and  _63
REMARK   28  A    between atoms: _63  and  _64
REMARK   29  A    between atoms: _63  and  _66
REMARK   30  A    between atoms: _66  and  _67
REMARK   31  A    between atoms: _67  and  _68
REMARK   32  A    between atoms: _73  and  _75
REMARK   33  A    between atoms: _75  and  _76
REMARK   34  A    between atoms: _75  and  _78
REMARK   35  A    between atoms: _81  and  _83
REMARK   36  A    between atoms: _83  and  _84
REMARK   37  A    between atoms: _83  and  _86
REMARK   38  A    between atoms: _86  and  _87
REMARK   39  A    between atoms: _90  and  _92
REMARK   40  A    between atoms: _92  and  _93
REMARK   41  A    between atoms: _92  and  _95
REMARK   42  A    between atoms: _95  and  _96
REMARK   43  A    between atoms: _96  and  _97
REMARK   44  A    between atoms: _100  and  _102
REMARK   45  A    between atoms: _102  and  _103
REMARK   46  A    between atoms: _106  and  _108
REMARK   47  A    between atoms: _108  and  _109
REMARK   48  A    between atoms: _108  and  _111
REMARK   49  A    between atoms: _111  and  _112
REMARK   50  A    between atoms: _115  and  _117
REMARK   51  A    between atoms: _117  and  _118
REMARK   52  A    between atoms: _117  and  _120
REMARK   53  A    between atoms: _123  and  _125
REMARK   54  A    between atoms: _125  and  _126
REMARK   55  A    between atoms: _129  and  _131
REMARK   56  A    between atoms: _131  and  _132
REMARK   57  A    between atoms: _131  and  _134
REMARK   58  A    between atoms: _137  and  _139
REMARK   59  A    between atoms: _139  and  _140
REMARK   60  A    between atoms: _139  and  _142
REMARK   61  A    between atoms: _142  and  _143
REMARK   62  A    between atoms: _143  and  _144
REMARK   63  A    between atoms: _144  and  _145
REMARK   64  A    between atoms: _145  and  _146
REMARK   65  A    between atoms: _150  and  _152
REMARK   66  A    between atoms: _152  and  _153
REMARK   67  A    between atoms: _152  and  _155
REMARK   68  A    between atoms: _155  and  _156
REMARK   69  A    between atoms: _156  and  _157
REMARK   70  A    between atoms: _159  and  _161
REMARK   71  A    between atoms: _161  and  _162
REMARK   72  A    between atoms: _161  and  _164
REMARK   73  A    between atoms: _164  and  _165
REMARK   74  A    between atoms: _168  and  _170
REMARK   75  A    between atoms: _170  and  _171
REMARK   76  A    between atoms: _170  and  _173
REMARK   77  A    between atoms: _173  and  _174
REMARK   78  A    between atoms: _174  and  _175
REMARK   79  A    between atoms: _178  and  _180
REMARK   80  A    between atoms: _180  and  _181
REMARK   81  A    between atoms: _180  and  _183
REMARK   82  A    between atoms: _183  and  _184
REMARK   83  A    between atoms: _187  and  _189
REMARK   84  A    between atoms: _189  and  _190
REMARK   85  A    between atoms: _189  and  _192
REMARK   86  A    between atoms: _192  and  _193
REMARK   87  A    between atoms: _196  and  _198
REMARK   88  A    between atoms: _198  and  _199
REMARK   89  A    between atoms: _198  and  _201
REMARK   90  A    between atoms: _201  and  _202
REMARK   91  A    between atoms: _205  and  _207
REMARK   92  A    between atoms: _207  and  _208
REMARK   93  A    between atoms: _207  and  _210
REMARK   94  A    between atoms: _210  and  _211
REMARK   95  A    between atoms: _214  and  _216
REMARK   96  A    between atoms: _216  and  _217
REMARK   97  A    between atoms: _216  and  _219
REMARK   98  A    between atoms: _222  and  _224
REMARK   99  A    between atoms: _224  and  _225
REMARK  100  A    between atoms: _224  and  _227
REMARK  101  A    between atoms: _230  and  _232
REMARK  102  A    between atoms: _232  and  _233
REMARK  103  A    between atoms: _232  and  _235
REMARK  104  A    between atoms: _235  and  _236
REMARK  105  A    between atoms: _241  and  _243
REMARK  106  A    between atoms: _243  and  _244
REMARK  107  A    between atoms: _243  and  _246
REMARK  108  A    between atoms: _246  and  _247
REMARK  109  A    between atoms: _250  and  _252
REMARK  110  A    between atoms: _252  and  _253
REMARK  111  A    between atoms: _252  and  _255
REMARK  112  A    between atoms: _255  and  _256
REMARK  113  A    between atoms: _259  and  _261
REMARK  114  A    between atoms: _261  and  _262
REMARK  115  A    between atoms: _264  and  _266
REMARK  116  A    between atoms: _266  and  _267
REMARK  117  A    between atoms: _266  and  _269
REMARK  118  A    between atoms: _269  and  _270
REMARK  119  A    between atoms: _270  and  _271
REMARK  120  A    between atoms: _273  and  _275
REMARK  121  A    between atoms: _275  and  _276
REMARK  122  A    between atoms: _275  and  _278
REMARK  123  A    between atoms: _281  and  _283
REMARK  124  A    between atoms: _283  and  _284
REMARK  125  A    between atoms: _283  and  _286
REMARK  126  A    between atoms: _286  and  _287
REMARK  127  A    between atoms: _290  and  _292
REMARK  128  A    between atoms: _292  and  _293
REMARK  129  A    between atoms: _292  and  _295
REMARK  130  A    between atoms: _298  and  _300
REMARK  131  A    between atoms: _300  and  _301
REMARK  132  A    between atoms: _300  and  _303
REMARK  133  A    between atoms: _303  and  _304
REMARK  134  A    between atoms: _304  and  _305
REMARK  135  A    between atoms: _308  and  _310
REMARK  136  A    between atoms: _310  and  _311
REMARK  137  A    between atoms: _310  and  _313
REMARK  138  A    between atoms: _313  and  _314
REMARK  139  A    between atoms: _320  and  _322
REMARK  140  A    between atoms: _322  and  _323
REMARK  141  A    between atoms: _322  and  _325
REMARK  142  A    between atoms: _327  and  _329
REMARK  143  A    between atoms: _329  and  _330
REMARK  144  A    between atoms: _329  and  _332
REMARK  145  A    between atoms: _332  and  _333
REMARK  146  A    between atoms: _333  and  _334
REMARK  147  A    between atoms: _334  and  _335
REMARK  148  A    between atoms: _335  and  _336
REMARK  149  A    between atoms: _340  and  _342
REMARK  150  A    between atoms: _342  and  _343
REMARK  151  A    between atoms: _342  and  _345
REMARK  152  A    between atoms: _345  and  _346
REMARK  153  A    between atoms: _352  and  _354
REMARK  154  A    between atoms: _354  and  _355
REMARK  155  A    between atoms: _357  and  _359
REMARK  156  A    between atoms: _359  and  _360
REMARK  157  A    between atoms: _359  and  _362
REMARK  158  A    between atoms: _362  and  _363
REMARK  159  A    between atoms: _368  and  _370
REMARK  160  A    between atoms: _370  and  _371
REMARK  161  A    between atoms: _370  and  _373
REMARK  162  A    between atoms: _373  and  _374
REMARK  163  A    between atoms: _377  and  _379
REMARK  164  A    between atoms: _379  and  _380
REMARK  165  A    between atoms: _379  and  _382
REMARK  166  A    between atoms: _382  and  _383
REMARK  167  A    between atoms: _388  and  _390
REMARK  168  A    between atoms: _390  and  _391
REMARK  169  A    between atoms: _390  and  _393
REMARK  170  A    between atoms: _393  and  _394
REMARK  171  A    between atoms: _394  and  _395
REMARK  172  A    between atoms: _395  and  _396
REMARK  173  A    between atoms: _405  and  _407
REMARK  174  A    between atoms: _407  and  _408
REMARK  175  A    between atoms: _407  and  _410
REMARK  176  A    between atoms: _410  and  _411
REMARK  177  A    between atoms: _416  and  _418
REMARK  178  A    between atoms: _418  and  _419
REMARK  179  A    between atoms: _418  and  _421
REMARK  180  A    between atoms: _421  and  _422
REMARK  181  A    between atoms: _425  and  _427
REMARK  182  A    between atoms: _427  and  _428
REMARK  183  A    between atoms: _427  and  _430
REMARK  184  A    between atoms: _430  and  _431
REMARK  185  A    between atoms: _434  and  _436
REMARK  186  A    between atoms: _436  and  _437
REMARK  187  A    between atoms: _436  and  _439
REMARK  188  A    between atoms: _439  and  _440
REMARK  189  A    between atoms: _443  and  _445
REMARK  190  A    between atoms: _445  and  _446
REMARK  191  A    between atoms: _445  and  _448
REMARK  192  A    between atoms: _448  and  _449
REMARK  193  A    between atoms: _451  and  _453
REMARK  194  A    between atoms: _453  and  _454
REMARK  195  A    between atoms: _453  and  _456
REMARK  196  A    between atoms: _456  and  _457
REMARK  197  A    between atoms: _457  and  _458
REMARK  198  A    between atoms: _458  and  _459
REMARK  199  A    between atoms: _459  and  _460
REMARK  200  A    between atoms: _464  and  _466
REMARK  201  A    between atoms: _466  and  _467
REMARK  202  A    between atoms: _466  and  _469
REMARK  203  A    between atoms: _469  and  _470
REMARK  204  A    between atoms: _473  and  _475
REMARK  205  A    between atoms: _475  and  _476
REMARK  206  A    between atoms: _475  and  _478
REMARK  207  A    between atoms: _480  and  _482
REMARK  208  A    between atoms: _482  and  _483
REMARK  209  A    between atoms: _482  and  _485
REMARK  210  A    between atoms: _485  and  _486
REMARK  211  A    between atoms: _489  and  _491
REMARK  212  A    between atoms: _491  and  _492
REMARK  213  A    between atoms: _491  and  _494
REMARK  214  A    between atoms: _494  and  _495
REMARK  215  A    between atoms: _501  and  _503
REMARK  216  A    between atoms: _503  and  _504
REMARK  217  A    between atoms: _506  and  _508
REMARK  218  A    between atoms: _508  and  _509
REMARK  219  A    between atoms: _508  and  _511
REMARK  220  A    between atoms: _511  and  _512
REMARK  221  A    between atoms: _515  and  _517
REMARK  222  A    between atoms: _517  and  _518
REMARK  223  A    between atoms: _521  and  _523
REMARK  224  A    between atoms: _523  and  _524
REMARK  225  A    between atoms: _523  and  _526
REMARK  226  A    between atoms: _526  and  _527
REMARK  227  A    between atoms: _527  and  _528
REMARK  228  A    between atoms: _528  and  _529
REMARK                            x       y       z     vdW  Elec       q    Type
REMARK                         _______ _______ _______ _____ _____    ______ ____
ROOT
ATOM      1  O   HOH     1     -11.934   9.999 -15.854  0.00  0.00    +0.000 OA
ENDROOT
TORSDOF 0
REMARK  Name = ../refined-set-2016/4agc/4agc_pocket.pdb
REMARK  228 active torsions:
REMARK  status: ('A' for Active; 'I' for Inactive)
REMARK    1  A    between atoms: _1  and  _3
REMARK    2  A    between atoms: _3  and  _4
REMARK    3  A    between atoms: _3  and  _6
REMARK    4  A    between atoms: _6  and  _7
REMARK    5  A    between atoms: _10  and  _12
REMARK    6  A    between atoms: _12  and  _13
REMARK    7  A    between atoms: _12  and  _15
REMARK    8  A    between atoms: _15  and  _16
REMARK    9  A    between atoms: _18  and  _20
REMARK   10  A    between atoms: _20  and  _21
REMARK   11  A    between atoms: _20  and  _23
REMARK   12  A    between atoms: _23  and  _24
REMARK   13  A    between atoms: _27  and  _29
REMARK   14  A    between atoms: _29  and  _30
REMARK   15  A    between atoms: _29  and  _32
REMARK   16  A    between atoms: _32  and  _33
REMARK   17  A    between atoms: _33  and  _34
REMARK   18  A    between atoms: _34  and  _35
REMARK   19  A    between atoms: _35  and  _36
REMARK   20  A    between atoms: _41  and  _42
REMARK   21  A    between atoms: _47  and  _49
REMARK   22  A    between atoms: _49  and  _50
REMARK   23  A    between atoms: _49  and  _52
REMARK   24  A    between atoms: _52  and  _53
REMARK   25  A    between atoms: _56  and  _58
REMARK   26  A    between atoms: _58  and  _59
REMARK   27  A    between atoms: _61  and  _63
REMARK   28  A    between atoms: _63  and  _64
REMARK   29  A    between atoms: _63  and  _66
REMARK   30  A    between atoms: _66  and  _67
REMARK   31  A    between atoms: _67  and  _68
REMARK   32  A    between atoms: _73  and  _75
REMARK   33  A    between atoms: _75  and  _76
REMARK   34  A    between atoms: _75  and  _78
REMARK   35  A    between atoms: _81  and  _83
REMARK   36  A    between atoms: _83  and  _84
REMARK   37  A    between atoms: _83  and  _86
REMARK   38  A    between atoms: _86  and  _87
REMARK   39  A    between atoms: _90  and  _92
REMARK   40  A    between atoms: _92  and  _93
REMARK   41  A    between atoms: _92  and  _95
REMARK   42  A    between atoms: _95  and  _96
REMARK   43  A    between atoms: _96  and  _97
REMARK   44  A    between atoms: _100  and  _102
REMARK   45  A    between atoms: _102  and  _103
REMARK   46  A    between atoms: _106  and  _108
REMARK   47  A    between atoms: _108  and  _109
REMARK   48  A    between atoms: _108  and  _111
REMARK   49  A    between atoms: _111  and  _112
REMARK   50  A    between atoms: _115  and  _117
REMARK   51  A    between atoms: _117  and  _118
REMARK   52  A    between atoms: _117  and  _120
REMARK   53  A    between atoms: _123  and  _125
REMARK   54  A    between atoms: _125  and  _126
REMARK   55  A    between atoms: _129  and  _131
REMARK   56  A    between atoms: _131  and  _132
REMARK   57  A    between atoms: _131  and  _134
REMARK   58  A    between atoms: _137  and  _139
REMARK   59  A    between atoms: _139  and  _140
REMARK   60  A    between atoms: _139  and  _142
REMARK   61  A    between atoms: _142  and  _143
REMARK   62  A    between atoms: _143  and  _144
REMARK   63  A    between atoms: _144  and  _145
REMARK   64  A    between atoms: _145  and  _146
REMARK   65  A    between atoms: _150  and  _152
REMARK   66  A    between atoms: _152  and  _153
REMARK   67  A    between atoms: _152  and  _155
REMARK   68  A    between atoms: _155  and  _156
REMARK   69  A    between atoms: _156  and  _157
REMARK   70  A    between atoms: _159  and  _161
REMARK   71  A    between atoms: _161  and  _162
REMARK   72  A    between atoms: _161  and  _164
REMARK   73  A    between atoms: _164  and  _165
REMARK   74  A    between atoms: _168  and  _170
REMARK   75  A    between atoms: _170  and  _171
REMARK   76  A    between atoms: _170  and  _173
REMARK   77  A    between atoms: _173  and  _174
REMARK   78  A    between atoms: _174  and  _175
REMARK   79  A    between atoms: _178  and  _180
REMARK   80  A    between atoms: _180  and  _181
REMARK   81  A    between atoms: _180  and  _183
REMARK   82  A    between atoms: _183  and  _184
REMARK   83  A    between atoms: _187  and  _189
REMARK   84  A    between atoms: _189  and  _190
REMARK   85  A    between atoms: _189  and  _192
REMARK   86  A    between atoms: _192  and  _193
REMARK   87  A    between atoms: _196  and  _198
REMARK   88  A    between atoms: _198  and  _199
REMARK   89  A    between atoms: _198  and  _201
REMARK   90  A    between atoms: _201  and  _202
REMARK   91  A    between atoms: _205  and  _207
REMARK   92  A    between atoms: _207  and  _208
REMARK   93  A    between atoms: _207  and  _210
REMARK   94  A    between atoms: _210  and  _211
REMARK   95  A    between atoms: _214  and  _216
REMARK   96  A    between atoms: _216  and  _217
REMARK   97  A    between atoms: _216  and  _219
REMARK   98  A    between atoms: _222  and  _224
REMARK   99  A    between atoms: _224  and  _225
REMARK  100  A    between atoms: _224  and  _227
REMARK  101  A    between atoms: _230  and  _232
REMARK  102  A    between atoms: _232  and  _233
REMARK  103  A    between atoms: _232  and  _235
REMARK  104  A    between atoms: _235  and  _236
REMARK  105  A    between atoms: _241  and  _243
REMARK  106  A    between atoms: _243  and  _244
REMARK  107  A    between atoms: _243  and  _246
REMARK  108  A    between atoms: _246  and  _247
REMARK  109  A    between atoms: _250  and  _252
REMARK  110  A    between atoms: _252  and  _253
REMARK  111  A    between atoms: _252  and  _255
REMARK  112  A    between atoms: _255  and  _256
REMARK  113  A    between atoms: _259  and  _261
REMARK  114  A    between atoms: _261  and  _262
REMARK  115  A    between atoms: _264  and  _266
REMARK  116  A    between atoms: _266  and  _267
REMARK  117  A    between atoms: _266  and  _269
REMARK  118  A    between atoms: _269  and  _270
REMARK  119  A    between atoms: _270  and  _271
REMARK  120  A    between atoms: _273  and  _275
REMARK  121  A    between atoms: _275  and  _276
REMARK  122  A    between atoms: _275  and  _278
REMARK  123  A    between atoms: _281  and  _283
REMARK  124  A    between atoms: _283  and  _284
REMARK  125  A    between atoms: _283  and  _286
REMARK  126  A    between atoms: _286  and  _287
REMARK  127  A    between atoms: _290  and  _292
REMARK  128  A    between atoms: _292  and  _293
REMARK  129  A    between atoms: _292  and  _295
REMARK  130  A    between atoms: _298  and  _300
REMARK  131  A    between atoms: _300  and  _301
REMARK  132  A    between atoms: _300  and  _303
REMARK  133  A    between atoms: _303  and  _304
REMARK  134  A    between atoms: _304  and  _305
REMARK  135  A    between atoms: _308  and  _310
REMARK  136  A    between atoms: _310  and  _311
REMARK  137  A    between atoms: _310  and  _313
REMARK  138  A    between atoms: _313  and  _314
REMARK  139  A    between atoms: _320  and  _322
REMARK  140  A    between atoms: _322  and  _323
REMARK  141  A    between atoms: _322  and  _325
REMARK  142  A    between atoms: _327  and  _329
REMARK  143  A    between atoms: _329  and  _330
REMARK  144  A    between atoms: _329  and  _332
REMARK  145  A    between atoms: _332  and  _333
REMARK  146  A    between atoms: _333  and  _334
REMARK  147  A    between atoms: _334  and  _335
REMARK  148  A    between atoms: _335  and  _336
REMARK  149  A    between atoms: _340  and  _342
REMARK  150  A    between atoms: _342  and  _343
REMARK  151  A    between atoms: _342  and  _345
REMARK  152  A    between atoms: _345  and  _346
REMARK  153  A    between atoms: _352  and  _354
REMARK  154  A    between atoms: _354  and  _355
REMARK  155  A    between atoms: _357  and  _359
REMARK  156  A    between atoms: _359  and  _360
REMARK  157  A    between atoms: _359  and  _362
REMARK  158  A    between atoms: _362  and  _363
REMARK  159  A    between atoms: _368  and  _370
REMARK  160  A    between atoms: _370  and  _371
REMARK  161  A    between atoms: _370  and  _373
REMARK  162  A    between atoms: _373  and  _374
REMARK  163  A    between atoms: _377  and  _379
REMARK  164  A    between atoms: _379  and  _380
REMARK  165  A    between atoms: _379  and  _382
REMARK  166  A    between atoms: _382  and  _383
REMARK  167  A    between atoms: _388  and  _390
REMARK  168  A    between atoms: _390  and  _391
REMARK  169  A    between atoms: _390  and  _393
REMARK  170  A    between atoms: _393  and  _394
REMARK  171  A    between atoms: _394  and  _395
REMARK  172  A    between atoms: _395  and  _396
REMARK  173  A    between atoms: _405  and  _407
REMARK  174  A    between atoms: _407  and  _408
REMARK  175  A    between atoms: _407  and  _410
REMARK  176  A    between atoms: _410  and  _411
REMARK  177  A    between atoms: _416  and  _418
REMARK  178  A    between atoms: _418  and  _419
REMARK  179  A    between atoms: _418  and  _421
REMARK  180  A    between atoms: _421  and  _422
REMARK  181  A    between atoms: _425  and  _427
REMARK  182  A    between atoms: _427  and  _428
REMARK  183  A    between atoms: _427  and  _430
REMARK  184  A    between atoms: _430  and  _431
REMARK  185  A    between atoms: _434  and  _436
REMARK  186  A    between atoms: _436  and  _437
REMARK  187  A    between atoms: _436  and  _439
REMARK  188  A    between atoms: _439  and  _440
REMARK  189  A    between atoms: _443  and  _445
REMARK  190  A    between atoms: _445  and  _446
REMARK  191  A    between atoms: _445  and  _448
REMARK  192  A    between atoms: _448  and  _449
REMARK  193  A    between atoms: _451  and  _453
REMARK  194  A    between atoms: _453  and  _454
REMARK  195  A    between atoms: _453  and  _456
REMARK  196  A    between atoms: _456  and  _457
REMARK  197  A    between atoms: _457  and  _458
REMARK  198  A    between atoms: _458  and  _459
REMARK  199  A    between atoms: _459  and  _460
REMARK  200  A    between atoms: _464  and  _466
REMARK  201  A    between atoms: _466  and  _467
REMARK  202  A    between atoms: _466  and  _469
REMARK  203  A    between atoms: _469  and  _470
REMARK  204  A    between atoms: _473  and  _475
REMARK  205  A    between atoms: _475  and  _476
REMARK  206  A    between atoms: _475  and  _478
REMARK  207  A    between atoms: _480  and  _482
REMARK  208  A    between atoms: _482  and  _483
REMARK  209  A    between atoms: _482  and  _485
REMARK  210  A    between atoms: _485  and  _486
REMARK  211  A    between atoms: _489  and  _491
REMARK  212  A    between atoms: _491  and  _492
REMARK  213  A    between atoms: _491  and  _494
REMARK  214  A    between atoms: _494  and  _495
REMARK  215  A    between atoms: _501  and  _503
REMARK  216  A    between atoms: _503  and  _504
REMARK  217  A    between atoms: _506  and  _508
REMARK  218  A    between atoms: _508  and  _509
REMARK  219  A    between atoms: _508  and  _511
REMARK  220  A    between atoms: _511  and  _512
REMARK  221  A    between atoms: _515  and  _517
REMARK  222  A    between atoms: _517  and  _518
REMARK  223  A    between atoms: _521  and  _523
REMARK  224  A    between atoms: _523  and  _524
REMARK  225  A    between atoms: _523  and  _526
REMARK  226  A    between atoms: _526  and  _527
REMARK  227  A    between atoms: _527  and  _528
REMARK  228  A    between atoms: _528  and  _529
REMARK                            x       y       z     vdW  Elec       q    Type
REMARK                         _______ _______ _______ _____ _____    ______ ____
ROOT
ATOM      1  O   HOH     1     -26.547  -8.586 -10.826  0.00  0.00    +0.000 OA
ENDROOT
TORSDOF 0
REMARK  Name = ../refined-set-2016/4agc/4agc_pocket.pdb
REMARK  228 active torsions:
REMARK  status: ('A' for Active; 'I' for Inactive)
REMARK    1  A    between atoms: _1  and  _3
REMARK    2  A    between atoms: _3  and  _4
REMARK    3  A    between atoms: _3  and  _6
REMARK    4  A    between atoms: _6  and  _7
REMARK    5  A    between atoms: _10  and  _12
REMARK    6  A    between atoms: _12  and  _13
REMARK    7  A    between atoms: _12  and  _15
REMARK    8  A    between atoms: _15  and  _16
REMARK    9  A    between atoms: _18  and  _20
REMARK   10  A    between atoms: _20  and  _21
REMARK   11  A    between atoms: _20  and  _23
REMARK   12  A    between atoms: _23  and  _24
REMARK   13  A    between atoms: _27  and  _29
REMARK   14  A    between atoms: _29  and  _30
REMARK   15  A    between atoms: _29  and  _32
REMARK   16  A    between atoms: _32  and  _33
REMARK   17  A    between atoms: _33  and  _34
REMARK   18  A    between atoms: _34  and  _35
REMARK   19  A    between atoms: _35  and  _36
REMARK   20  A    between atoms: _41  and  _42
REMARK   21  A    between atoms: _47  and  _49
REMARK   22  A    between atoms: _49  and  _50
REMARK   23  A    between atoms: _49  and  _52
REMARK   24  A    between atoms: _52  and  _53
REMARK   25  A    between atoms: _56  and  _58
REMARK   26  A    between atoms: _58  and  _59
REMARK   27  A    between atoms: _61  and  _63
REMARK   28  A    between atoms: _63  and  _64
REMARK   29  A    between atoms: _63  and  _66
REMARK   30  A    between atoms: _66  and  _67
REMARK   31  A    between atoms: _67  and  _68
REMARK   32  A    between atoms: _73  and  _75
REMARK   33  A    between atoms: _75  and  _76
REMARK   34  A    between atoms: _75  and  _78
REMARK   35  A    between atoms: _81  and  _83
REMARK   36  A    between atoms: _83  and  _84
REMARK   37  A    between atoms: _83  and  _86
REMARK   38  A    between atoms: _86  and  _87
REMARK   39  A    between atoms: _90  and  _92
REMARK   40  A    between atoms: _92  and  _93
REMARK   41  A    between atoms: _92  and  _95
REMARK   42  A    between atoms: _95  and  _96
REMARK   43  A    between atoms: _96  and  _97
REMARK   44  A    between atoms: _100  and  _102
REMARK   45  A    between atoms: _102  and  _103
REMARK   46  A    between atoms: _106  and  _108
REMARK   47  A    between atoms: _108  and  _109
REMARK   48  A    between atoms: _108  and  _111
REMARK   49  A    between atoms: _111  and  _112
REMARK   50  A    between atoms: _115  and  _117
REMARK   51  A    between atoms: _117  and  _118
REMARK   52  A    between atoms: _117  and  _120
REMARK   53  A    between atoms: _123  and  _125
REMARK   54  A    between atoms: _125  and  _126
REMARK   55  A    between atoms: _129  and  _131
REMARK   56  A    between atoms: _131  and  _132
REMARK   57  A    between atoms: _131  and  _134
REMARK   58  A    between atoms: _137  and  _139
REMARK   59  A    between atoms: _139  and  _140
REMARK   60  A    between atoms: _139  and  _142
REMARK   61  A    between atoms: _142  and  _143
REMARK   62  A    between atoms: _143  and  _144
REMARK   63  A    between atoms: _144  and  _145
REMARK   64  A    between atoms: _145  and  _146
REMARK   65  A    between atoms: _150  and  _152
REMARK   66  A    between atoms: _152  and  _153
REMARK   67  A    between atoms: _152  and  _155
REMARK   68  A    between atoms: _155  and  _156
REMARK   69  A    between atoms: _156  and  _157
REMARK   70  A    between atoms: _159  and  _161
REMARK   71  A    between atoms: _161  and  _162
REMARK   72  A    between atoms: _161  and  _164
REMARK   73  A    between atoms: _164  and  _165
REMARK   74  A    between atoms: _168  and  _170
REMARK   75  A    between atoms: _170  and  _171
REMARK   76  A    between atoms: _170  and  _173
REMARK   77  A    between atoms: _173  and  _174
REMARK   78  A    between atoms: _174  and  _175
REMARK   79  A    between atoms: _178  and  _180
REMARK   80  A    between atoms: _180  and  _181
REMARK   81  A    between atoms: _180  and  _183
REMARK   82  A    between atoms: _183  and  _184
REMARK   83  A    between atoms: _187  and  _189
REMARK   84  A    between atoms: _189  and  _190
REMARK   85  A    between atoms: _189  and  _192
REMARK   86  A    between atoms: _192  and  _193
REMARK   87  A    between atoms: _196  and  _198
REMARK   88  A    between atoms: _198  and  _199
REMARK   89  A    between atoms: _198  and  _201
REMARK   90  A    between atoms: _201  and  _202
REMARK   91  A    between atoms: _205  and  _207
REMARK   92  A    between atoms: _207  and  _208
REMARK   93  A    between atoms: _207  and  _210
REMARK   94  A    between atoms: _210  and  _211
REMARK   95  A    between atoms: _214  and  _216
REMARK   96  A    between atoms: _216  and  _217
REMARK   97  A    between atoms: _216  and  _219
REMARK   98  A    between atoms: _222  and  _224
REMARK   99  A    between atoms: _224  and  _225
REMARK  100  A    between atoms: _224  and  _227
REMARK  101  A    between atoms: _230  and  _232
REMARK  102  A    between atoms: _232  and  _233
REMARK  103  A    between atoms: _232  and  _235
REMARK  104  A    between atoms: _235  and  _236
REMARK  105  A    between atoms: _241  and  _243
REMARK  106  A    between atoms: _243  and  _244
REMARK  107  A    between atoms: _243  and  _246
REMARK  108  A    between atoms: _246  and  _247
REMARK  109  A    between atoms: _250  and  _252
REMARK  110  A    between atoms: _252  and  _253
REMARK  111  A    between atoms: _252  and  _255
REMARK  112  A    between atoms: _255  and  _256
REMARK  113  A    between atoms: _259  and  _261
REMARK  114  A    between atoms: _261  and  _262
REMARK  115  A    between atoms: _264  and  _266
REMARK  116  A    between atoms: _266  and  _267
REMARK  117  A    between atoms: _266  and  _269
REMARK  118  A    between atoms: _269  and  _270
REMARK  119  A    between atoms: _270  and  _271
REMARK  120  A    between atoms: _273  and  _275
REMARK  121  A    between atoms: _275  and  _276
REMARK  122  A    between atoms: _275  and  _278
REMARK  123  A    between atoms: _281  and  _283
REMARK  124  A    between atoms: _283  and  _284
REMARK  125  A    between atoms: _283  and  _286
REMARK  126  A    between atoms: _286  and  _287
REMARK  127  A    between atoms: _290  and  _292
REMARK  128  A    between atoms: _292  and  _293
REMARK  129  A    between atoms: _292  and  _295
REMARK  130  A    between atoms: _298  and  _300
REMARK  131  A    between atoms: _300  and  _301
REMARK  132  A    between atoms: _300  and  _303
REMARK  133  A    between atoms: _303  and  _304
REMARK  134  A    between atoms: _304  and  _305
REMARK  135  A    between atoms: _308  and  _310
REMARK  136  A    between atoms: _310  and  _311
REMARK  137  A    between atoms: _310  and  _313
REMARK  138  A    between atoms: _313  and  _314
REMARK  139  A    between atoms: _320  and  _322
REMARK  140  A    between atoms: _322  and  _323
REMARK  141  A    between atoms: _322  and  _325
REMARK  142  A    between atoms: _327  and  _329
REMARK  143  A    between atoms: _329  and  _330
REMARK  144  A    between atoms: _329  and  _332
REMARK  145  A    between atoms: _332  and  _333
REMARK  146  A    between atoms: _333  and  _334
REMARK  147  A    between atoms: _334  and  _335
REMARK  148  A    between atoms: _335  and  _336
REMARK  149  A    between atoms: _340  and  _342
REMARK  150  A    between atoms: _342  and  _343
REMARK  151  A    between atoms: _342  and  _345
REMARK  152  A    between atoms: _345  and  _346
REMARK  153  A    between atoms: _352  and  _354
REMARK  154  A    between atoms: _354  and  _355
REMARK  155  A    between atoms: _357  and  _359
REMARK  156  A    between atoms: _359  and  _360
REMARK  157  A    between atoms: _359  and  _362
REMARK  158  A    between atoms: _362  and  _363
REMARK  159  A    between atoms: _368  and  _370
REMARK  160  A    between atoms: _370  and  _371
REMARK  161  A    between atoms: _370  and  _373
REMARK  162  A    between atoms: _373  and  _374
REMARK  163  A    between atoms: _377  and  _379
REMARK  164  A    between atoms: _379  and  _380
REMARK  165  A    between atoms: _379  and  _382
REMARK  166  A    between atoms: _382  and  _383
REMARK  167  A    between atoms: _388  and  _390
REMARK  168  A    between atoms: _390  and  _391
REMARK  169  A    between atoms: _390  and  _393
REMARK  170  A    between atoms: _393  and  _394
REMARK  171  A    between atoms: _394  and  _395
REMARK  172  A    between atoms: _395  and  _396
REMARK  173  A    between atoms: _405  and  _407
REMARK  174  A    between atoms: _407  and  _408
REMARK  175  A    between atoms: _407  and  _410
REMARK  176  A    between atoms: _410  and  _411
REMARK  177  A    between atoms: _416  and  _418
REMARK  178  A    between atoms: _418  and  _419
REMARK  179  A    between atoms: _418  and  _421
REMARK  180  A    between atoms: _421  and  _422
REMARK  181  A    between atoms: _425  and  _427
REMARK  182  A    between atoms: _427  and  _428
REMARK  183  A    between atoms: _427  and  _430
REMARK  184  A    between atoms: _430  and  _431
REMARK  185  A    between atoms: _434  and  _436
REMARK  186  A    between atoms: _436  and  _437
REMARK  187  A    between atoms: _436  and  _439
REMARK  188  A    between atoms: _439  and  _440
REMARK  189  A    between atoms: _443  and  _445
REMARK  190  A    between atoms: _445  and  _446
REMARK  191  A    between atoms: _445  and  _448
REMARK  192  A    between atoms: _448  and  _449
REMARK  193  A    between atoms: _451  and  _453
REMARK  194  A    between atoms: _453  and  _454
REMARK  195  A    between atoms: _453  and  _456
REMARK  196  A    between atoms: _456  and  _457
REMARK  197  A    between atoms: _457  and  _458
REMARK  198  A    between atoms: _458  and  _459
REMARK  199  A    between atoms: _459  and  _460
REMARK  200  A    between atoms: _464  and  _466
REMARK  201  A    between atoms: _466  and  _467
REMARK  202  A    between atoms: _466  and  _469
REMARK  203  A    between atoms: _469  and  _470
REMARK  204  A    between atoms: _473  and  _475
REMARK  205  A    between atoms: _475  and  _476
REMARK  206  A    between atoms: _475  and  _478
REMARK  207  A    between atoms: _480  and  _482
REMARK  208  A    between atoms: _482  and  _483
REMARK  209  A    between atoms: _482  and  _485
REMARK  210  A    between atoms: _485  and  _486
REMARK  211  A    between atoms: _489  and  _491
REMARK  212  A    between atoms: _491  and  _492
REMARK  213  A    between atoms: _491  and  _494
REMARK  214  A    between atoms: _494  and  _495
REMARK  215  A    between atoms: _501  and  _503
REMARK  216  A    between atoms: _503  and  _504
REMARK  217  A    between atoms: _506  and  _508
REMARK  218  A    between atoms: _508  and  _509
REMARK  219  A    between atoms: _508  and  _511
REMARK  220  A    between atoms: _511  and  _512
REMARK  221  A    between atoms: _515  and  _517
REMARK  222  A    between atoms: _517  and  _518
REMARK  223  A    between atoms: _521  and  _523
REMARK  224  A    between atoms: _523  and  _524
REMARK  225  A    between atoms: _523  and  _526
REMARK  226  A    between atoms: _526  and  _527
REMARK  227  A    between atoms: _527  and  _528
REMARK  228  A    between atoms: _528  and  _529
REMARK                            x       y       z     vdW  Elec       q    Type
REMARK                         _______ _______ _______ _____ _____    ______ ____
ROOT
ATOM      1  O   HOH     1     -28.303  -7.135  -6.790  0.00  0.00    +0.000 OA
ENDROOT
TORSDOF 0
REMARK  Name = ../refined-set-2016/4agc/4agc_pocket.pdb
REMARK  228 active torsions:
REMARK  status: ('A' for Active; 'I' for Inactive)
REMARK    1  A    between atoms: _1  and  _3
REMARK    2  A    between atoms: _3  and  _4
REMARK    3  A    between atoms: _3  and  _6
REMARK    4  A    between atoms: _6  and  _7
REMARK    5  A    between atoms: _10  and  _12
REMARK    6  A    between atoms: _12  and  _13
REMARK    7  A    between atoms: _12  and  _15
REMARK    8  A    between atoms: _15  and  _16
REMARK    9  A    between atoms: _18  and  _20
REMARK   10  A    between atoms: _20  and  _21
REMARK   11  A    between atoms: _20  and  _23
REMARK   12  A    between atoms: _23  and  _24
REMARK   13  A    between atoms: _27  and  _29
REMARK   14  A    between atoms: _29  and  _30
REMARK   15  A    between atoms: _29  and  _32
REMARK   16  A    between atoms: _32  and  _33
REMARK   17  A    between atoms: _33  and  _34
REMARK   18  A    between atoms: _34  and  _35
REMARK   19  A    between atoms: _35  and  _36
REMARK   20  A    between atoms: _41  and  _42
REMARK   21  A    between atoms: _47  and  _49
REMARK   22  A    between atoms: _49  and  _50
REMARK   23  A    between atoms: _49  and  _52
REMARK   24  A    between atoms: _52  and  _53
REMARK   25  A    between atoms: _56  and  _58
REMARK   26  A    between atoms: _58  and  _59
REMARK   27  A    between atoms: _61  and  _63
REMARK   28  A    between atoms: _63  and  _64
REMARK   29  A    between atoms: _63  and  _66
REMARK   30  A    between atoms: _66  and  _67
REMARK   31  A    between atoms: _67  and  _68
REMARK   32  A    between atoms: _73  and  _75
REMARK   33  A    between atoms: _75  and  _76
REMARK   34  A    between atoms: _75  and  _78
REMARK   35  A    between atoms: _81  and  _83
REMARK   36  A    between atoms: _83  and  _84
REMARK   37  A    between atoms: _83  and  _86
REMARK   38  A    between atoms: _86  and  _87
REMARK   39  A    between atoms: _90  and  _92
REMARK   40  A    between atoms: _92  and  _93
REMARK   41  A    between atoms: _92  and  _95
REMARK   42  A    between atoms: _95  and  _96
REMARK   43  A    between atoms: _96  and  _97
REMARK   44  A    between atoms: _100  and  _102
REMARK   45  A    between atoms: _102  and  _103
REMARK   46  A    between atoms: _106  and  _108
REMARK   47  A    between atoms: _108  and  _109
REMARK   48  A    between atoms: _108  and  _111
REMARK   49  A    between atoms: _111  and  _112
REMARK   50  A    between atoms: _115  and  _117
REMARK   51  A    between atoms: _117  and  _118
REMARK   52  A    between atoms: _117  and  _120
REMARK   53  A    between atoms: _123  and  _125
REMARK   54  A    between atoms: _125  and  _126
REMARK   55  A    between atoms: _129  and  _131
REMARK   56  A    between atoms: _131  and  _132
REMARK   57  A    between atoms: _131  and  _134
REMARK   58  A    between atoms: _137  and  _139
REMARK   59  A    between atoms: _139  and  _140
REMARK   60  A    between atoms: _139  and  _142
REMARK   61  A    between atoms: _142  and  _143
REMARK   62  A    between atoms: _143  and  _144
REMARK   63  A    between atoms: _144  and  _145
REMARK   64  A    between atoms: _145  and  _146
REMARK   65  A    between atoms: _150  and  _152
REMARK   66  A    between atoms: _152  and  _153
REMARK   67  A    between atoms: _152  and  _155
REMARK   68  A    between atoms: _155  and  _156
REMARK   69  A    between atoms: _156  and  _157
REMARK   70  A    between atoms: _159  and  _161
REMARK   71  A    between atoms: _161  and  _162
REMARK   72  A    between atoms: _161  and  _164
REMARK   73  A    between atoms: _164  and  _165
REMARK   74  A    between atoms: _168  and  _170
REMARK   75  A    between atoms: _170  and  _171
REMARK   76  A    between atoms: _170  and  _173
REMARK   77  A    between atoms: _173  and  _174
REMARK   78  A    between atoms: _174  and  _175
REMARK   79  A    between atoms: _178  and  _180
REMARK   80  A    between atoms: _180  and  _181
REMARK   81  A    between atoms: _180  and  _183
REMARK   82  A    between atoms: _183  and  _184
REMARK   83  A    between atoms: _187  and  _189
REMARK   84  A    between atoms: _189  and  _190
REMARK   85  A    between atoms: _189  and  _192
REMARK   86  A    between atoms: _192  and  _193
REMARK   87  A    between atoms: _196  and  _198
REMARK   88  A    between atoms: _198  and  _199
REMARK   89  A    between atoms: _198  and  _201
REMARK   90  A    between atoms: _201  and  _202
REMARK   91  A    between atoms: _205  and  _207
REMARK   92  A    between atoms: _207  and  _208
REMARK   93  A    between atoms: _207  and  _210
REMARK   94  A    between atoms: _210  and  _211
REMARK   95  A    between atoms: _214  and  _216
REMARK   96  A    between atoms: _216  and  _217
REMARK   97  A    between atoms: _216  and  _219
REMARK   98  A    between atoms: _222  and  _224
REMARK   99  A    between atoms: _224  and  _225
REMARK  100  A    between atoms: _224  and  _227
REMARK  101  A    between atoms: _230  and  _232
REMARK  102  A    between atoms: _232  and  _233
REMARK  103  A    between atoms: _232  and  _235
REMARK  104  A    between atoms: _235  and  _236
REMARK  105  A    between atoms: _241  and  _243
REMARK  106  A    between atoms: _243  and  _244
REMARK  107  A    between atoms: _243  and  _246
REMARK  108  A    between atoms: _246  and  _247
REMARK  109  A    between atoms: _250  and  _252
REMARK  110  A    between atoms: _252  and  _253
REMARK  111  A    between atoms: _252  and  _255
REMARK  112  A    between atoms: _255  and  _256
REMARK  113  A    between atoms: _259  and  _261
REMARK  114  A    between atoms: _261  and  _262
REMARK  115  A    between atoms: _264  and  _266
REMARK  116  A    between atoms: _266  and  _267
REMARK  117  A    between atoms: _266  and  _269
REMARK  118  A    between atoms: _269  and  _270
REMARK  119  A    between atoms: _270  and  _271
REMARK  120  A    between atoms: _273  and  _275
REMARK  121  A    between atoms: _275  and  _276
REMARK  122  A    between atoms: _275  and  _278
REMARK  123  A    between atoms: _281  and  _283
REMARK  124  A    between atoms: _283  and  _284
REMARK  125  A    between atoms: _283  and  _286
REMARK  126  A    between atoms: _286  and  _287
REMARK  127  A    between atoms: _290  and  _292
REMARK  128  A    between atoms: _292  and  _293
REMARK  129  A    between atoms: _292  and  _295
REMARK  130  A    between atoms: _298  and  _300
REMARK  131  A    between atoms: _300  and  _301
REMARK  132  A    between atoms: _300  and  _303
REMARK  133  A    between atoms: _303  and  _304
REMARK  134  A    between atoms: _304  and  _305
REMARK  135  A    between atoms: _308  and  _310
REMARK  136  A    between atoms: _310  and  _311
REMARK  137  A    between atoms: _310  and  _313
REMARK  138  A    between atoms: _313  and  _314
REMARK  139  A    between atoms: _320  and  _322
REMARK  140  A    between atoms: _322  and  _323
REMARK  141  A    between atoms: _322  and  _325
REMARK  142  A    between atoms: _327  and  _329
REMARK  143  A    between atoms: _329  and  _330
REMARK  144  A    between atoms: _329  and  _332
REMARK  145  A    between atoms: _332  and  _333
REMARK  146  A    between atoms: _333  and  _334
REMARK  147  A    between atoms: _334  and  _335
REMARK  148  A    between atoms: _335  and  _336
REMARK  149  A    between atoms: _340  and  _342
REMARK  150  A    between atoms: _342  and  _343
REMARK  151  A    between atoms: _342  and  _345
REMARK  152  A    between atoms: _345  and  _346
REMARK  153  A    between atoms: _352  and  _354
REMARK  154  A    between atoms: _354  and  _355
REMARK  155  A    between atoms: _357  and  _359
REMARK  156  A    between atoms: _359  and  _360
REMARK  157  A    between atoms: _359  and  _362
REMARK  158  A    between atoms: _362  and  _363
REMARK  159  A    between atoms: _368  and  _370
REMARK  160  A    between atoms: _370  and  _371
REMARK  161  A    between atoms: _370  and  _373
REMARK  162  A    between atoms: _373  and  _374
REMARK  163  A    between atoms: _377  and  _379
REMARK  164  A    between atoms: _379  and  _380
REMARK  165  A    between atoms: _379  and  _382
REMARK  166  A    between atoms: _382  and  _383
REMARK  167  A    between atoms: _388  and  _390
REMARK  168  A    between atoms: _390  and  _391
REMARK  169  A    between atoms: _390  and  _393
REMARK  170  A    between atoms: _393  and  _394
REMARK  171  A    between atoms: _394  and  _395
REMARK  172  A    between atoms: _395  and  _396
REMARK  173  A    between atoms: _405  and  _407
REMARK  174  A    between atoms: _407  and  _408
REMARK  175  A    between atoms: _407  and  _410
REMARK  176  A    between atoms: _410  and  _411
REMARK  177  A    between atoms: _416  and  _418
REMARK  178  A    between atoms: _418  and  _419
REMARK  179  A    between atoms: _418  and  _421
REMARK  180  A    between atoms: _421  and  _422
REMARK  181  A    between atoms: _425  and  _427
REMARK  182  A    between atoms: _427  and  _428
REMARK  183  A    between atoms: _427  and  _430
REMARK  184  A    between atoms: _430  and  _431
REMARK  185  A    between atoms: _434  and  _436
REMARK  186  A    between atoms: _436  and  _437
REMARK  187  A    between atoms: _436  and  _439
REMARK  188  A    between atoms: _439  and  _440
REMARK  189  A    between atoms: _443  and  _445
REMARK  190  A    between atoms: _445  and  _446
REMARK  191  A    between atoms: _445  and  _448
REMARK  192  A    between atoms: _448  and  _449
REMARK  193  A    between atoms: _451  and  _453
REMARK  194  A    between atoms: _453  and  _454
REMARK  195  A    between atoms: _453  and  _456
REMARK  196  A    between atoms: _456  and  _457
REMARK  197  A    between atoms: _457  and  _458
REMARK  198  A    between atoms: _458  and  _459
REMARK  199  A    between atoms: _459  and  _460
REMARK  200  A    between atoms: _464  and  _466
REMARK  201  A    between atoms: _466  and  _467
REMARK  202  A    between atoms: _466  and  _469
REMARK  203  A    between atoms: _469  and  _470
REMARK  204  A    between atoms: _473  and  _475
REMARK  205  A    between atoms: _475  and  _476
REMARK  206  A    between atoms: _475  and  _478
REMARK  207  A    between atoms: _480  and  _482
REMARK  208  A    between atoms: _482  and  _483
REMARK  209  A    between atoms: _482  and  _485
REMARK  210  A    between atoms: _485  and  _486
REMARK  211  A    between atoms: _489  and  _491
REMARK  212  A    between atoms: _491  and  _492
REMARK  213  A    between atoms: _491  and  _494
REMARK  214  A    between atoms: _494  and  _495
REMARK  215  A    between atoms: _501  and  _503
REMARK  216  A    between atoms: _503  and  _504
REMARK  217  A    between atoms: _506  and  _508
REMARK  218  A    between atoms: _508  and  _509
REMARK  219  A    between atoms: _508  and  _511
REMARK  220  A    between atoms: _511  and  _512
REMARK  221  A    between atoms: _515  and  _517
REMARK  222  A    between atoms: _517  and  _518
REMARK  223  A    between atoms: _521  and  _523
REMARK  224  A    between atoms: _523  and  _524
REMARK  225  A    between atoms: _523  and  _526
REMARK  226  A    between atoms: _526  and  _527
REMARK  227  A    between atoms: _527  and  _528
REMARK  228  A    between atoms: _528  and  _529
REMARK                            x       y       z     vdW  Elec       q    Type
REMARK                         _______ _______ _______ _____ _____    ______ ____
ROOT
ATOM      1  O   HOH     1     -15.874   4.987 -19.384  0.00  0.00    +0.000 OA
ENDROOT
TORSDOF 0
REMARK  Name = ../refined-set-2016/4agc/4agc_pocket.pdb
REMARK  228 active torsions:
REMARK  status: ('A' for Active; 'I' for Inactive)
REMARK    1  A    between atoms: _1  and  _3
REMARK    2  A    between atoms: _3  and  _4
REMARK    3  A    between atoms: _3  and  _6
REMARK    4  A    between atoms: _6  and  _7
REMARK    5  A    between atoms: _10  and  _12
REMARK    6  A    between atoms: _12  and  _13
REMARK    7  A    between atoms: _12  and  _15
REMARK    8  A    between atoms: _15  and  _16
REMARK    9  A    between atoms: _18  and  _20
REMARK   10  A    between atoms: _20  and  _21
REMARK   11  A    between atoms: _20  and  _23
REMARK   12  A    between atoms: _23  and  _24
REMARK   13  A    between atoms: _27  and  _29
REMARK   14  A    between atoms: _29  and  _30
REMARK   15  A    between atoms: _29  and  _32
REMARK   16  A    between atoms: _32  and  _33
REMARK   17  A    between atoms: _33  and  _34
REMARK   18  A    between atoms: _34  and  _35
REMARK   19  A    between atoms: _35  and  _36
REMARK   20  A    between atoms: _41  and  _42
REMARK   21  A    between atoms: _47  and  _49
REMARK   22  A    between atoms: _49  and  _50
REMARK   23  A    between atoms: _49  and  _52
REMARK   24  A    between atoms: _52  and  _53
REMARK   25  A    between atoms: _56  and  _58
REMARK   26  A    between atoms: _58  and  _59
REMARK   27  A    between atoms: _61  and  _63
REMARK   28  A    between atoms: _63  and  _64
REMARK   29  A    between atoms: _63  and  _66
REMARK   30  A    between atoms: _66  and  _67
REMARK   31  A    between atoms: _67  and  _68
REMARK   32  A    between atoms: _73  and  _75
REMARK   33  A    between atoms: _75  and  _76
REMARK   34  A    between atoms: _75  and  _78
REMARK   35  A    between atoms: _81  and  _83
REMARK   36  A    between atoms: _83  and  _84
REMARK   37  A    between atoms: _83  and  _86
REMARK   38  A    between atoms: _86  and  _87
REMARK   39  A    between atoms: _90  and  _92
REMARK   40  A    between atoms: _92  and  _93
REMARK   41  A    between atoms: _92  and  _95
REMARK   42  A    between atoms: _95  and  _96
REMARK   43  A    between atoms: _96  and  _97
REMARK   44  A    between atoms: _100  and  _102
REMARK   45  A    between atoms: _102  and  _103
REMARK   46  A    between atoms: _106  and  _108
REMARK   47  A    between atoms: _108  and  _109
REMARK   48  A    between atoms: _108  and  _111
REMARK   49  A    between atoms: _111  and  _112
REMARK   50  A    between atoms: _115  and  _117
REMARK   51  A    between atoms: _117  and  _118
REMARK   52  A    between atoms: _117  and  _120
REMARK   53  A    between atoms: _123  and  _125
REMARK   54  A    between atoms: _125  and  _126
REMARK   55  A    between atoms: _129  and  _131
REMARK   56  A    between atoms: _131  and  _132
REMARK   57  A    between atoms: _131  and  _134
REMARK   58  A    between atoms: _137  and  _139
REMARK   59  A    between atoms: _139  and  _140
REMARK   60  A    between atoms: _139  and  _142
REMARK   61  A    between atoms: _142  and  _143
REMARK   62  A    between atoms: _143  and  _144
REMARK   63  A    between atoms: _144  and  _145
REMARK   64  A    between atoms: _145  and  _146
REMARK   65  A    between atoms: _150  and  _152
REMARK   66  A    between atoms: _152  and  _153
REMARK   67  A    between atoms: _152  and  _155
REMARK   68  A    between atoms: _155  and  _156
REMARK   69  A    between atoms: _156  and  _157
REMARK   70  A    between atoms: _159  and  _161
REMARK   71  A    between atoms: _161  and  _162
REMARK   72  A    between atoms: _161  and  _164
REMARK   73  A    between atoms: _164  and  _165
REMARK   74  A    between atoms: _168  and  _170
REMARK   75  A    between atoms: _170  and  _171
REMARK   76  A    between atoms: _170  and  _173
REMARK   77  A    between atoms: _173  and  _174
REMARK   78  A    between atoms: _174  and  _175
REMARK   79  A    between atoms: _178  and  _180
REMARK   80  A    between atoms: _180  and  _181
REMARK   81  A    between atoms: _180  and  _183
REMARK   82  A    between atoms: _183  and  _184
REMARK   83  A    between atoms: _187  and  _189
REMARK   84  A    between atoms: _189  and  _190
REMARK   85  A    between atoms: _189  and  _192
REMARK   86  A    between atoms: _192  and  _193
REMARK   87  A    between atoms: _196  and  _198
REMARK   88  A    between atoms: _198  and  _199
REMARK   89  A    between atoms: _198  and  _201
REMARK   90  A    between atoms: _201  and  _202
REMARK   91  A    between atoms: _205  and  _207
REMARK   92  A    between atoms: _207  and  _208
REMARK   93  A    between atoms: _207  and  _210
REMARK   94  A    between atoms: _210  and  _211
REMARK   95  A    between atoms: _214  and  _216
REMARK   96  A    between atoms: _216  and  _217
REMARK   97  A    between atoms: _216  and  _219
REMARK   98  A    between atoms: _222  and  _224
REMARK   99  A    between atoms: _224  and  _225
REMARK  100  A    between atoms: _224  and  _227
REMARK  101  A    between atoms: _230  and  _232
REMARK  102  A    between atoms: _232  and  _233
REMARK  103  A    between atoms: _232  and  _235
REMARK  104  A    between atoms: _235  and  _236
REMARK  105  A    between atoms: _241  and  _243
REMARK  106  A    between atoms: _243  and  _244
REMARK  107  A    between atoms: _243  and  _246
REMARK  108  A    between atoms: _246  and  _247
REMARK  109  A    between atoms: _250  and  _252
REMARK  110  A    between atoms: _252  and  _253
REMARK  111  A    between atoms: _252  and  _255
REMARK  112  A    between atoms: _255  and  _256
REMARK  113  A    between atoms: _259  and  _261
REMARK  114  A    between atoms: _261  and  _262
REMARK  115  A    between atoms: _264  and  _266
REMARK  116  A    between atoms: _266  and  _267
REMARK  117  A    between atoms: _266  and  _269
REMARK  118  A    between atoms: _269  and  _270
REMARK  119  A    between atoms: _270  and  _271
REMARK  120  A    between atoms: _273  and  _275
REMARK  121  A    between atoms: _275  and  _276
REMARK  122  A    between atoms: _275  and  _278
REMARK  123  A    between atoms: _281  and  _283
REMARK  124  A    between atoms: _283  and  _284
REMARK  125  A    between atoms: _283  and  _286
REMARK  126  A    between atoms: _286  and  _287
REMARK  127  A    between atoms: _290  and  _292
REMARK  128  A    between atoms: _292  and  _293
REMARK  129  A    between atoms: _292  and  _295
REMARK  130  A    between atoms: _298  and  _300
REMARK  131  A    between atoms: _300  and  _301
REMARK  132  A    between atoms: _300  and  _303
REMARK  133  A    between atoms: _303  and  _304
REMARK  134  A    between atoms: _304  and  _305
REMARK  135  A    between atoms: _308  and  _310
REMARK  136  A    between atoms: _310  and  _311
REMARK  137  A    between atoms: _310  and  _313
REMARK  138  A    between atoms: _313  and  _314
REMARK  139  A    between atoms: _320  and  _322
REMARK  140  A    between atoms: _322  and  _323
REMARK  141  A    between atoms: _322  and  _325
REMARK  142  A    between atoms: _327  and  _329
REMARK  143  A    between atoms: _329  and  _330
REMARK  144  A    between atoms: _329  and  _332
REMARK  145  A    between atoms: _332  and  _333
REMARK  146  A    between atoms: _333  and  _334
REMARK  147  A    between atoms: _334  and  _335
REMARK  148  A    between atoms: _335  and  _336
REMARK  149  A    between atoms: _340  and  _342
REMARK  150  A    between atoms: _342  and  _343
REMARK  151  A    between atoms: _342  and  _345
REMARK  152  A    between atoms: _345  and  _346
REMARK  153  A    between atoms: _352  and  _354
REMARK  154  A    between atoms: _354  and  _355
REMARK  155  A    between atoms: _357  and  _359
REMARK  156  A    between atoms: _359  and  _360
REMARK  157  A    between atoms: _359  and  _362
REMARK  158  A    between atoms: _362  and  _363
REMARK  159  A    between atoms: _368  and  _370
REMARK  160  A    between atoms: _370  and  _371
REMARK  161  A    between atoms: _370  and  _373
REMARK  162  A    between atoms: _373  and  _374
REMARK  163  A    between atoms: _377  and  _379
REMARK  164  A    between atoms: _379  and  _380
REMARK  165  A    between atoms: _379  and  _382
REMARK  166  A    between atoms: _382  and  _383
REMARK  167  A    between atoms: _388  and  _390
REMARK  168  A    between atoms: _390  and  _391
REMARK  169  A    between atoms: _390  and  _393
REMARK  170  A    between atoms: _393  and  _394
REMARK  171  A    between atoms: _394  and  _395
REMARK  172  A    between atoms: _395  and  _396
REMARK  173  A    between atoms: _405  and  _407
REMARK  174  A    between atoms: _407  and  _408
REMARK  175  A    between atoms: _407  and  _410
REMARK  176  A    between atoms: _410  and  _411
REMARK  177  A    between atoms: _416  and  _418
REMARK  178  A    between atoms: _418  and  _419
REMARK  179  A    between atoms: _418  and  _421
REMARK  180  A    between atoms: _421  and  _422
REMARK  181  A    between atoms: _425  and  _427
REMARK  182  A    between atoms: _427  and  _428
REMARK  183  A    between atoms: _427  and  _430
REMARK  184  A    between atoms: _430  and  _431
REMARK  185  A    between atoms: _434  and  _436
REMARK  186  A    between atoms: _436  and  _437
REMARK  187  A    between atoms: _436  and  _439
REMARK  188  A    between atoms: _439  and  _440
REMARK  189  A    between atoms: _443  and  _445
REMARK  190  A    between atoms: _445  and  _446
REMARK  191  A    between atoms: _445  and  _448
REMARK  192  A    between atoms: _448  and  _449
REMARK  193  A    between atoms: _451  and  _453
REMARK  194  A    between atoms: _453  and  _454
REMARK  195  A    between atoms: _453  and  _456
REMARK  196  A    between atoms: _456  and  _457
REMARK  197  A    between atoms: _457  and  _458
REMARK  198  A    between atoms: _458  and  _459
REMARK  199  A    between atoms: _459  and  _460
REMARK  200  A    between atoms: _464  and  _466
REMARK  201  A    between atoms: _466  and  _467
REMARK  202  A    between atoms: _466  and  _469
REMARK  203  A    between atoms: _469  and  _470
REMARK  204  A    between atoms: _473  and  _475
REMARK  205  A    between atoms: _475  and  _476
REMARK  206  A    between atoms: _475  and  _478
REMARK  207  A    between atoms: _480  and  _482
REMARK  208  A    between atoms: _482  and  _483
REMARK  209  A    between atoms: _482  and  _485
REMARK  210  A    between atoms: _485  and  _486
REMARK  211  A    between atoms: _489  and  _491
REMARK  212  A    between atoms: _491  and  _492
REMARK  213  A    between atoms: _491  and  _494
REMARK  214  A    between atoms: _494  and  _495
REMARK  215  A    between atoms: _501  and  _503
REMARK  216  A    between atoms: _503  and  _504
REMARK  217  A    between atoms: _506  and  _508
REMARK  218  A    between atoms: _508  and  _509
REMARK  219  A    between atoms: _508  and  _511
REMARK  220  A    between atoms: _511  and  _512
REMARK  221  A    between atoms: _515  and  _517
REMARK  222  A    between atoms: _517  and  _518
REMARK  223  A    between atoms: _521  and  _523
REMARK  224  A    between atoms: _523  and  _524
REMARK  225  A    between atoms: _523  and  _526
REMARK  226  A    between atoms: _526  and  _527
REMARK  227  A    between atoms: _527  and  _528
REMARK  228  A    between atoms: _528  and  _529
REMARK                            x       y       z     vdW  Elec       q    Type
REMARK                         _______ _______ _______ _____ _____    ______ ____
ROOT
ATOM      1  O   HOH     1     -16.248  -0.295 -13.675  0.00  0.00    +0.000 OA
ENDROOT
TORSDOF 0
REMARK  Name = ../refined-set-2016/4agc/4agc_pocket.pdb
REMARK  228 active torsions:
REMARK  status: ('A' for Active; 'I' for Inactive)
REMARK    1  A    between atoms: _1  and  _3
REMARK    2  A    between atoms: _3  and  _4
REMARK    3  A    between atoms: _3  and  _6
REMARK    4  A    between atoms: _6  and  _7
REMARK    5  A    between atoms: _10  and  _12
REMARK    6  A    between atoms: _12  and  _13
REMARK    7  A    between atoms: _12  and  _15
REMARK    8  A    between atoms: _15  and  _16
REMARK    9  A    between atoms: _18  and  _20
REMARK   10  A    between atoms: _20  and  _21
REMARK   11  A    between atoms: _20  and  _23
REMARK   12  A    between atoms: _23  and  _24
REMARK   13  A    between atoms: _27  and  _29
REMARK   14  A    between atoms: _29  and  _30
REMARK   15  A    between atoms: _29  and  _32
REMARK   16  A    between atoms: _32  and  _33
REMARK   17  A    between atoms: _33  and  _34
REMARK   18  A    between atoms: _34  and  _35
REMARK   19  A    between atoms: _35  and  _36
REMARK   20  A    between atoms: _41  and  _42
REMARK   21  A    between atoms: _47  and  _49
REMARK   22  A    between atoms: _49  and  _50
REMARK   23  A    between atoms: _49  and  _52
REMARK   24  A    between atoms: _52  and  _53
REMARK   25  A    between atoms: _56  and  _58
REMARK   26  A    between atoms: _58  and  _59
REMARK   27  A    between atoms: _61  and  _63
REMARK   28  A    between atoms: _63  and  _64
REMARK   29  A    between atoms: _63  and  _66
REMARK   30  A    between atoms: _66  and  _67
REMARK   31  A    between atoms: _67  and  _68
REMARK   32  A    between atoms: _73  and  _75
REMARK   33  A    between atoms: _75  and  _76
REMARK   34  A    between atoms: _75  and  _78
REMARK   35  A    between atoms: _81  and  _83
REMARK   36  A    between atoms: _83  and  _84
REMARK   37  A    between atoms: _83  and  _86
REMARK   38  A    between atoms: _86  and  _87
REMARK   39  A    between atoms: _90  and  _92
REMARK   40  A    between atoms: _92  and  _93
REMARK   41  A    between atoms: _92  and  _95
REMARK   42  A    between atoms: _95  and  _96
REMARK   43  A    between atoms: _96  and  _97
REMARK   44  A    between atoms: _100  and  _102
REMARK   45  A    between atoms: _102  and  _103
REMARK   46  A    between atoms: _106  and  _108
REMARK   47  A    between atoms: _108  and  _109
REMARK   48  A    between atoms: _108  and  _111
REMARK   49  A    between atoms: _111  and  _112
REMARK   50  A    between atoms: _115  and  _117
REMARK   51  A    between atoms: _117  and  _118
REMARK   52  A    between atoms: _117  and  _120
REMARK   53  A    between atoms: _123  and  _125
REMARK   54  A    between atoms: _125  and  _126
REMARK   55  A    between atoms: _129  and  _131
REMARK   56  A    between atoms: _131  and  _132
REMARK   57  A    between atoms: _131  and  _134
REMARK   58  A    between atoms: _137  and  _139
REMARK   59  A    between atoms: _139  and  _140
REMARK   60  A    between atoms: _139  and  _142
REMARK   61  A    between atoms: _142  and  _143
REMARK   62  A    between atoms: _143  and  _144
REMARK   63  A    between atoms: _144  and  _145
REMARK   64  A    between atoms: _145  and  _146
REMARK   65  A    between atoms: _150  and  _152
REMARK   66  A    between atoms: _152  and  _153
REMARK   67  A    between atoms: _152  and  _155
REMARK   68  A    between atoms: _155  and  _156
REMARK   69  A    between atoms: _156  and  _157
REMARK   70  A    between atoms: _159  and  _161
REMARK   71  A    between atoms: _161  and  _162
REMARK   72  A    between atoms: _161  and  _164
REMARK   73  A    between atoms: _164  and  _165
REMARK   74  A    between atoms: _168  and  _170
REMARK   75  A    between atoms: _170  and  _171
REMARK   76  A    between atoms: _170  and  _173
REMARK   77  A    between atoms: _173  and  _174
REMARK   78  A    between atoms: _174  and  _175
REMARK   79  A    between atoms: _178  and  _180
REMARK   80  A    between atoms: _180  and  _181
REMARK   81  A    between atoms: _180  and  _183
REMARK   82  A    between atoms: _183  and  _184
REMARK   83  A    between atoms: _187  and  _189
REMARK   84  A    between atoms: _189  and  _190
REMARK   85  A    between atoms: _189  and  _192
REMARK   86  A    between atoms: _192  and  _193
REMARK   87  A    between atoms: _196  and  _198
REMARK   88  A    between atoms: _198  and  _199
REMARK   89  A    between atoms: _198  and  _201
REMARK   90  A    between atoms: _201  and  _202
REMARK   91  A    between atoms: _205  and  _207
REMARK   92  A    between atoms: _207  and  _208
REMARK   93  A    between atoms: _207  and  _210
REMARK   94  A    between atoms: _210  and  _211
REMARK   95  A    between atoms: _214  and  _216
REMARK   96  A    between atoms: _216  and  _217
REMARK   97  A    between atoms: _216  and  _219
REMARK   98  A    between atoms: _222  and  _224
REMARK   99  A    between atoms: _224  and  _225
REMARK  100  A    between atoms: _224  and  _227
REMARK  101  A    between atoms: _230  and  _232
REMARK  102  A    between atoms: _232  and  _233
REMARK  103  A    between atoms: _232  and  _235
REMARK  104  A    between atoms: _235  and  _236
REMARK  105  A    between atoms: _241  and  _243
REMARK  106  A    between atoms: _243  and  _244
REMARK  107  A    between atoms: _243  and  _246
REMARK  108  A    between atoms: _246  and  _247
REMARK  109  A    between atoms: _250  and  _252
REMARK  110  A    between atoms: _252  and  _253
REMARK  111  A    between atoms: _252  and  _255
REMARK  112  A    between atoms: _255  and  _256
REMARK  113  A    between atoms: _259  and  _261
REMARK  114  A    between atoms: _261  and  _262
REMARK  115  A    between atoms: _264  and  _266
REMARK  116  A    between atoms: _266  and  _267
REMARK  117  A    between atoms: _266  and  _269
REMARK  118  A    between atoms: _269  and  _270
REMARK  119  A    between atoms: _270  and  _271
REMARK  120  A    between atoms: _273  and  _275
REMARK  121  A    between atoms: _275  and  _276
REMARK  122  A    between atoms: _275  and  _278
REMARK  123  A    between atoms: _281  and  _283
REMARK  124  A    between atoms: _283  and  _284
REMARK  125  A    between atoms: _283  and  _286
REMARK  126  A    between atoms: _286  and  _287
REMARK  127  A    between atoms: _290  and  _292
REMARK  128  A    between atoms: _292  and  _293
REMARK  129  A    between atoms: _292  and  _295
REMARK  130  A    between atoms: _298  and  _300
REMARK  131  A    between atoms: _300  and  _301
REMARK  132  A    between atoms: _300  and  _303
REMARK  133  A    between atoms: _303  and  _304
REMARK  134  A    between atoms: _304  and  _305
REMARK  135  A    between atoms: _308  and  _310
REMARK  136  A    between atoms: _310  and  _311
REMARK  137  A    between atoms: _310  and  _313
REMARK  138  A    between atoms: _313  and  _314
REMARK  139  A    between atoms: _320  and  _322
REMARK  140  A    between atoms: _322  and  _323
REMARK  141  A    between atoms: _322  and  _325
REMARK  142  A    between atoms: _327  and  _329
REMARK  143  A    between atoms: _329  and  _330
REMARK  144  A    between atoms: _329  and  _332
REMARK  145  A    between atoms: _332  and  _333
REMARK  146  A    between atoms: _333  and  _334
REMARK  147  A    between atoms: _334  and  _335
REMARK  148  A    between atoms: _335  and  _336
REMARK  149  A    between atoms: _340  and  _342
REMARK  150  A    between atoms: _342  and  _343
REMARK  151  A    between atoms: _342  and  _345
REMARK  152  A    between atoms: _345  and  _346
REMARK  153  A    between atoms: _352  and  _354
REMARK  154  A    between atoms: _354  and  _355
REMARK  155  A    between atoms: _357  and  _359
REMARK  156  A    between atoms: _359  and  _360
REMARK  157  A    between atoms: _359  and  _362
REMARK  158  A    between atoms: _362  and  _363
REMARK  159  A    between atoms: _368  and  _370
REMARK  160  A    between atoms: _370  and  _371
REMARK  161  A    between atoms: _370  and  _373
REMARK  162  A    between atoms: _373  and  _374
REMARK  163  A    between atoms: _377  and  _379
REMARK  164  A    between atoms: _379  and  _380
REMARK  165  A    between atoms: _379  and  _382
REMARK  166  A    between atoms: _382  and  _383
REMARK  167  A    between atoms: _388  and  _390
REMARK  168  A    between atoms: _390  and  _391
REMARK  169  A    between atoms: _390  and  _393
REMARK  170  A    between atoms: _393  and  _394
REMARK  171  A    between atoms: _394  and  _395
REMARK  172  A    between atoms: _395  and  _396
REMARK  173  A    between atoms: _405  and  _407
REMARK  174  A    between atoms: _407  and  _408
REMARK  175  A    between atoms: _407  and  _410
REMARK  176  A    between atoms: _410  and  _411
REMARK  177  A    between atoms: _416  and  _418
REMARK  178  A    between atoms: _418  and  _419
REMARK  179  A    between atoms: _418  and  _421
REMARK  180  A    between atoms: _421  and  _422
REMARK  181  A    between atoms: _425  and  _427
REMARK  182  A    between atoms: _427  and  _428
REMARK  183  A    between atoms: _427  and  _430
REMARK  184  A    between atoms: _430  and  _431
REMARK  185  A    between atoms: _434  and  _436
REMARK  186  A    between atoms: _436  and  _437
REMARK  187  A    between atoms: _436  and  _439
REMARK  188  A    between atoms: _439  and  _440
REMARK  189  A    between atoms: _443  and  _445
REMARK  190  A    between atoms: _445  and  _446
REMARK  191  A    between atoms: _445  and  _448
REMARK  192  A    between atoms: _448  and  _449
REMARK  193  A    between atoms: _451  and  _453
REMARK  194  A    between atoms: _453  and  _454
REMARK  195  A    between atoms: _453  and  _456
REMARK  196  A    between atoms: _456  and  _457
REMARK  197  A    between atoms: _457  and  _458
REMARK  198  A    between atoms: _458  and  _459
REMARK  199  A    between atoms: _459  and  _460
REMARK  200  A    between atoms: _464  and  _466
REMARK  201  A    between atoms: _466  and  _467
REMARK  202  A    between atoms: _466  and  _469
REMARK  203  A    between atoms: _469  and  _470
REMARK  204  A    between atoms: _473  and  _475
REMARK  205  A    between atoms: _475  and  _476
REMARK  206  A    between atoms: _475  and  _478
REMARK  207  A    between atoms: _480  and  _482
REMARK  208  A    between atoms: _482  and  _483
REMARK  209  A    between atoms: _482  and  _485
REMARK  210  A    between atoms: _485  and  _486
REMARK  211  A    between atoms: _489  and  _491
REMARK  212  A    between atoms: _491  and  _492
REMARK  213  A    between atoms: _491  and  _494
REMARK  214  A    between atoms: _494  and  _495
REMARK  215  A    between atoms: _501  and  _503
REMARK  216  A    between atoms: _503  and  _504
REMARK  217  A    between atoms: _506  and  _508
REMARK  218  A    between atoms: _508  and  _509
REMARK  219  A    between atoms: _508  and  _511
REMARK  220  A    between atoms: _511  and  _512
REMARK  221  A    between atoms: _515  and  _517
REMARK  222  A    between atoms: _517  and  _518
REMARK  223  A    between atoms: _521  and  _523
REMARK  224  A    between atoms: _523  and  _524
REMARK  225  A    between atoms: _523  and  _526
REMARK  226  A    between atoms: _526  and  _527
REMARK  227  A    between atoms: _527  and  _528
REMARK  228  A    between atoms: _528  and  _529
REMARK                            x       y       z     vdW  Elec       q    Type
REMARK                         _______ _______ _______ _____ _____    ______ ____
ROOT
ATOM      1  O   HOH     1     -17.968   8.725 -20.802  0.00  0.00    +0.000 OA
ENDROOT
TORSDOF 0
REMARK  Name = ../refined-set-2016/4agc/4agc_pocket.pdb
REMARK  228 active torsions:
REMARK  status: ('A' for Active; 'I' for Inactive)
REMARK    1  A    between atoms: _1  and  _3
REMARK    2  A    between atoms: _3  and  _4
REMARK    3  A    between atoms: _3  and  _6
REMARK    4  A    between atoms: _6  and  _7
REMARK    5  A    between atoms: _10  and  _12
REMARK    6  A    between atoms: _12  and  _13
REMARK    7  A    between atoms: _12  and  _15
REMARK    8  A    between atoms: _15  and  _16
REMARK    9  A    between atoms: _18  and  _20
REMARK   10  A    between atoms: _20  and  _21
REMARK   11  A    between atoms: _20  and  _23
REMARK   12  A    between atoms: _23  and  _24
REMARK   13  A    between atoms: _27  and  _29
REMARK   14  A    between atoms: _29  and  _30
REMARK   15  A    between atoms: _29  and  _32
REMARK   16  A    between atoms: _32  and  _33
REMARK   17  A    between atoms: _33  and  _34
REMARK   18  A    between atoms: _34  and  _35
REMARK   19  A    between atoms: _35  and  _36
REMARK   20  A    between atoms: _41  and  _42
REMARK   21  A    between atoms: _47  and  _49
REMARK   22  A    between atoms: _49  and  _50
REMARK   23  A    between atoms: _49  and  _52
REMARK   24  A    between atoms: _52  and  _53
REMARK   25  A    between atoms: _56  and  _58
REMARK   26  A    between atoms: _58  and  _59
REMARK   27  A    between atoms: _61  and  _63
REMARK   28  A    between atoms: _63  and  _64
REMARK   29  A    between atoms: _63  and  _66
REMARK   30  A    between atoms: _66  and  _67
REMARK   31  A    between atoms: _67  and  _68
REMARK   32  A    between atoms: _73  and  _75
REMARK   33  A    between atoms: _75  and  _76
REMARK   34  A    between atoms: _75  and  _78
REMARK   35  A    between atoms: _81  and  _83
REMARK   36  A    between atoms: _83  and  _84
REMARK   37  A    between atoms: _83  and  _86
REMARK   38  A    between atoms: _86  and  _87
REMARK   39  A    between atoms: _90  and  _92
REMARK   40  A    between atoms: _92  and  _93
REMARK   41  A    between atoms: _92  and  _95
REMARK   42  A    between atoms: _95  and  _96
REMARK   43  A    between atoms: _96  and  _97
REMARK   44  A    between atoms: _100  and  _102
REMARK   45  A    between atoms: _102  and  _103
REMARK   46  A    between atoms: _106  and  _108
REMARK   47  A    between atoms: _108  and  _109
REMARK   48  A    between atoms: _108  and  _111
REMARK   49  A    between atoms: _111  and  _112
REMARK   50  A    between atoms: _115  and  _117
REMARK   51  A    between atoms: _117  and  _118
REMARK   52  A    between atoms: _117  and  _120
REMARK   53  A    between atoms: _123  and  _125
REMARK   54  A    between atoms: _125  and  _126
REMARK   55  A    between atoms: _129  and  _131
REMARK   56  A    between atoms: _131  and  _132
REMARK   57  A    between atoms: _131  and  _134
REMARK   58  A    between atoms: _137  and  _139
REMARK   59  A    between atoms: _139  and  _140
REMARK   60  A    between atoms: _139  and  _142
REMARK   61  A    between atoms: _142  and  _143
REMARK   62  A    between atoms: _143  and  _144
REMARK   63  A    between atoms: _144  and  _145
REMARK   64  A    between atoms: _145  and  _146
REMARK   65  A    between atoms: _150  and  _152
REMARK   66  A    between atoms: _152  and  _153
REMARK   67  A    between atoms: _152  and  _155
REMARK   68  A    between atoms: _155  and  _156
REMARK   69  A    between atoms: _156  and  _157
REMARK   70  A    between atoms: _159  and  _161
REMARK   71  A    between atoms: _161  and  _162
REMARK   72  A    between atoms: _161  and  _164
REMARK   73  A    between atoms: _164  and  _165
REMARK   74  A    between atoms: _168  and  _170
REMARK   75  A    between atoms: _170  and  _171
REMARK   76  A    between atoms: _170  and  _173
REMARK   77  A    between atoms: _173  and  _174
REMARK   78  A    between atoms: _174  and  _175
REMARK   79  A    between atoms: _178  and  _180
REMARK   80  A    between atoms: _180  and  _181
REMARK   81  A    between atoms: _180  and  _183
REMARK   82  A    between atoms: _183  and  _184
REMARK   83  A    between atoms: _187  and  _189
REMARK   84  A    between atoms: _189  and  _190
REMARK   85  A    between atoms: _189  and  _192
REMARK   86  A    between atoms: _192  and  _193
REMARK   87  A    between atoms: _196  and  _198
REMARK   88  A    between atoms: _198  and  _199
REMARK   89  A    between atoms: _198  and  _201
REMARK   90  A    between atoms: _201  and  _202
REMARK   91  A    between atoms: _205  and  _207
REMARK   92  A    between atoms: _207  and  _208
REMARK   93  A    between atoms: _207  and  _210
REMARK   94  A    between atoms: _210  and  _211
REMARK   95  A    between atoms: _214  and  _216
REMARK   96  A    between atoms: _216  and  _217
REMARK   97  A    between atoms: _216  and  _219
REMARK   98  A    between atoms: _222  and  _224
REMARK   99  A    between atoms: _224  and  _225
REMARK  100  A    between atoms: _224  and  _227
REMARK  101  A    between atoms: _230  and  _232
REMARK  102  A    between atoms: _232  and  _233
REMARK  103  A    between atoms: _232  and  _235
REMARK  104  A    between atoms: _235  and  _236
REMARK  105  A    between atoms: _241  and  _243
REMARK  106  A    between atoms: _243  and  _244
REMARK  107  A    between atoms: _243  and  _246
REMARK  108  A    between atoms: _246  and  _247
REMARK  109  A    between atoms: _250  and  _252
REMARK  110  A    between atoms: _252  and  _253
REMARK  111  A    between atoms: _252  and  _255
REMARK  112  A    between atoms: _255  and  _256
REMARK  113  A    between atoms: _259  and  _261
REMARK  114  A    between atoms: _261  and  _262
REMARK  115  A    between atoms: _264  and  _266
REMARK  116  A    between atoms: _266  and  _267
REMARK  117  A    between atoms: _266  and  _269
REMARK  118  A    between atoms: _269  and  _270
REMARK  119  A    between atoms: _270  and  _271
REMARK  120  A    between atoms: _273  and  _275
REMARK  121  A    between atoms: _275  and  _276
REMARK  122  A    between atoms: _275  and  _278
REMARK  123  A    between atoms: _281  and  _283
REMARK  124  A    between atoms: _283  and  _284
REMARK  125  A    between atoms: _283  and  _286
REMARK  126  A    between atoms: _286  and  _287
REMARK  127  A    between atoms: _290  and  _292
REMARK  128  A    between atoms: _292  and  _293
REMARK  129  A    between atoms: _292  and  _295
REMARK  130  A    between atoms: _298  and  _300
REMARK  131  A    between atoms: _300  and  _301
REMARK  132  A    between atoms: _300  and  _303
REMARK  133  A    between atoms: _303  and  _304
REMARK  134  A    between atoms: _304  and  _305
REMARK  135  A    between atoms: _308  and  _310
REMARK  136  A    between atoms: _310  and  _311
REMARK  137  A    between atoms: _310  and  _313
REMARK  138  A    between atoms: _313  and  _314
REMARK  139  A    between atoms: _320  and  _322
REMARK  140  A    between atoms: _322  and  _323
REMARK  141  A    between atoms: _322  and  _325
REMARK  142  A    between atoms: _327  and  _329
REMARK  143  A    between atoms: _329  and  _330
REMARK  144  A    between atoms: _329  and  _332
REMARK  145  A    between atoms: _332  and  _333
REMARK  146  A    between atoms: _333  and  _334
REMARK  147  A    between atoms: _334  and  _335
REMARK  148  A    between atoms: _335  and  _336
REMARK  149  A    between atoms: _340  and  _342
REMARK  150  A    between atoms: _342  and  _343
REMARK  151  A    between atoms: _342  and  _345
REMARK  152  A    between atoms: _345  and  _346
REMARK  153  A    between atoms: _352  and  _354
REMARK  154  A    between atoms: _354  and  _355
REMARK  155  A    between atoms: _357  and  _359
REMARK  156  A    between atoms: _359  and  _360
REMARK  157  A    between atoms: _359  and  _362
REMARK  158  A    between atoms: _362  and  _363
REMARK  159  A    between atoms: _368  and  _370
REMARK  160  A    between atoms: _370  and  _371
REMARK  161  A    between atoms: _370  and  _373
REMARK  162  A    between atoms: _373  and  _374
REMARK  163  A    between atoms: _377  and  _379
REMARK  164  A    between atoms: _379  and  _380
REMARK  165  A    between atoms: _379  and  _382
REMARK  166  A    between atoms: _382  and  _383
REMARK  167  A    between atoms: _388  and  _390
REMARK  168  A    between atoms: _390  and  _391
REMARK  169  A    between atoms: _390  and  _393
REMARK  170  A    between atoms: _393  and  _394
REMARK  171  A    between atoms: _394  and  _395
REMARK  172  A    between atoms: _395  and  _396
REMARK  173  A    between atoms: _405  and  _407
REMARK  174  A    between atoms: _407  and  _408
REMARK  175  A    between atoms: _407  and  _410
REMARK  176  A    between atoms: _410  and  _411
REMARK  177  A    between atoms: _416  and  _418
REMARK  178  A    between atoms: _418  and  _419
REMARK  179  A    between atoms: _418  and  _421
REMARK  180  A    between atoms: _421  and  _422
REMARK  181  A    between atoms: _425  and  _427
REMARK  182  A    between atoms: _427  and  _428
REMARK  183  A    between atoms: _427  and  _430
REMARK  184  A    between atoms: _430  and  _431
REMARK  185  A    between atoms: _434  and  _436
REMARK  186  A    between atoms: _436  and  _437
REMARK  187  A    between atoms: _436  and  _439
REMARK  188  A    between atoms: _439  and  _440
REMARK  189  A    between atoms: _443  and  _445
REMARK  190  A    between atoms: _445  and  _446
REMARK  191  A    between atoms: _445  and  _448
REMARK  192  A    between atoms: _448  and  _449
REMARK  193  A    between atoms: _451  and  _453
REMARK  194  A    between atoms: _453  and  _454
REMARK  195  A    between atoms: _453  and  _456
REMARK  196  A    between atoms: _456  and  _457
REMARK  197  A    between atoms: _457  and  _458
REMARK  198  A    between atoms: _458  and  _459
REMARK  199  A    between atoms: _459  and  _460
REMARK  200  A    between atoms: _464  and  _466
REMARK  201  A    between atoms: _466  and  _467
REMARK  202  A    between atoms: _466  and  _469
REMARK  203  A    between atoms: _469  and  _470
REMARK  204  A    between atoms: _473  and  _475
REMARK  205  A    between atoms: _475  and  _476
REMARK  206  A    between atoms: _475  and  _478
REMARK  207  A    between atoms: _480  and  _482
REMARK  208  A    between atoms: _482  and  _483
REMARK  209  A    between atoms: _482  and  _485
REMARK  210  A    between atoms: _485  and  _486
REMARK  211  A    between atoms: _489  and  _491
REMARK  212  A    between atoms: _491  and  _492
REMARK  213  A    between atoms: _491  and  _494
REMARK  214  A    between atoms: _494  and  _495
REMARK  215  A    between atoms: _501  and  _503
REMARK  216  A    between atoms: _503  and  _504
REMARK  217  A    between atoms: _506  and  _508
REMARK  218  A    between atoms: _508  and  _509
REMARK  219  A    between atoms: _508  and  _511
REMARK  220  A    between atoms: _511  and  _512
REMARK  221  A    between atoms: _515  and  _517
REMARK  222  A    between atoms: _517  and  _518
REMARK  223  A    between atoms: _521  and  _523
REMARK  224  A    between atoms: _523  and  _524
REMARK  225  A    between atoms: _523  and  _526
REMARK  226  A    between atoms: _526  and  _527
REMARK  227  A    between atoms: _527  and  _528
REMARK  228  A    between atoms: _528  and  _529
REMARK                            x       y       z     vdW  Elec       q    Type
REMARK                         _______ _______ _______ _____ _____    ______ ____
ROOT
ATOM      1  O   HOH     1     -26.500   8.846 -16.169  0.00  0.00    +0.000 OA
ENDROOT
TORSDOF 0
REMARK  Name = ../refined-set-2016/4agc/4agc_pocket.pdb
REMARK  228 active torsions:
REMARK  status: ('A' for Active; 'I' for Inactive)
REMARK    1  A    between atoms: _1  and  _3
REMARK    2  A    between atoms: _3  and  _4
REMARK    3  A    between atoms: _3  and  _6
REMARK    4  A    between atoms: _6  and  _7
REMARK    5  A    between atoms: _10  and  _12
REMARK    6  A    between atoms: _12  and  _13
REMARK    7  A    between atoms: _12  and  _15
REMARK    8  A    between atoms: _15  and  _16
REMARK    9  A    between atoms: _18  and  _20
REMARK   10  A    between atoms: _20  and  _21
REMARK   11  A    between atoms: _20  and  _23
REMARK   12  A    between atoms: _23  and  _24
REMARK   13  A    between atoms: _27  and  _29
REMARK   14  A    between atoms: _29  and  _30
REMARK   15  A    between atoms: _29  and  _32
REMARK   16  A    between atoms: _32  and  _33
REMARK   17  A    between atoms: _33  and  _34
REMARK   18  A    between atoms: _34  and  _35
REMARK   19  A    between atoms: _35  and  _36
REMARK   20  A    between atoms: _41  and  _42
REMARK   21  A    between atoms: _47  and  _49
REMARK   22  A    between atoms: _49  and  _50
REMARK   23  A    between atoms: _49  and  _52
REMARK   24  A    between atoms: _52  and  _53
REMARK   25  A    between atoms: _56  and  _58
REMARK   26  A    between atoms: _58  and  _59
REMARK   27  A    between atoms: _61  and  _63
REMARK   28  A    between atoms: _63  and  _64
REMARK   29  A    between atoms: _63  and  _66
REMARK   30  A    between atoms: _66  and  _67
REMARK   31  A    between atoms: _67  and  _68
REMARK   32  A    between atoms: _73  and  _75
REMARK   33  A    between atoms: _75  and  _76
REMARK   34  A    between atoms: _75  and  _78
REMARK   35  A    between atoms: _81  and  _83
REMARK   36  A    between atoms: _83  and  _84
REMARK   37  A    between atoms: _83  and  _86
REMARK   38  A    between atoms: _86  and  _87
REMARK   39  A    between atoms: _90  and  _92
REMARK   40  A    between atoms: _92  and  _93
REMARK   41  A    between atoms: _92  and  _95
REMARK   42  A    between atoms: _95  and  _96
REMARK   43  A    between atoms: _96  and  _97
REMARK   44  A    between atoms: _100  and  _102
REMARK   45  A    between atoms: _102  and  _103
REMARK   46  A    between atoms: _106  and  _108
REMARK   47  A    between atoms: _108  and  _109
REMARK   48  A    between atoms: _108  and  _111
REMARK   49  A    between atoms: _111  and  _112
REMARK   50  A    between atoms: _115  and  _117
REMARK   51  A    between atoms: _117  and  _118
REMARK   52  A    between atoms: _117  and  _120
REMARK   53  A    between atoms: _123  and  _125
REMARK   54  A    between atoms: _125  and  _126
REMARK   55  A    between atoms: _129  and  _131
REMARK   56  A    between atoms: _131  and  _132
REMARK   57  A    between atoms: _131  and  _134
REMARK   58  A    between atoms: _137  and  _139
REMARK   59  A    between atoms: _139  and  _140
REMARK   60  A    between atoms: _139  and  _142
REMARK   61  A    between atoms: _142  and  _143
REMARK   62  A    between atoms: _143  and  _144
REMARK   63  A    between atoms: _144  and  _145
REMARK   64  A    between atoms: _145  and  _146
REMARK   65  A    between atoms: _150  and  _152
REMARK   66  A    between atoms: _152  and  _153
REMARK   67  A    between atoms: _152  and  _155
REMARK   68  A    between atoms: _155  and  _156
REMARK   69  A    between atoms: _156  and  _157
REMARK   70  A    between atoms: _159  and  _161
REMARK   71  A    between atoms: _161  and  _162
REMARK   72  A    between atoms: _161  and  _164
REMARK   73  A    between atoms: _164  and  _165
REMARK   74  A    between atoms: _168  and  _170
REMARK   75  A    between atoms: _170  and  _171
REMARK   76  A    between atoms: _170  and  _173
REMARK   77  A    between atoms: _173  and  _174
REMARK   78  A    between atoms: _174  and  _175
REMARK   79  A    between atoms: _178  and  _180
REMARK   80  A    between atoms: _180  and  _181
REMARK   81  A    between atoms: _180  and  _183
REMARK   82  A    between atoms: _183  and  _184
REMARK   83  A    between atoms: _187  and  _189
REMARK   84  A    between atoms: _189  and  _190
REMARK   85  A    between atoms: _189  and  _192
REMARK   86  A    between atoms: _192  and  _193
REMARK   87  A    between atoms: _196  and  _198
REMARK   88  A    between atoms: _198  and  _199
REMARK   89  A    between atoms: _198  and  _201
REMARK   90  A    between atoms: _201  and  _202
REMARK   91  A    between atoms: _205  and  _207
REMARK   92  A    between atoms: _207  and  _208
REMARK   93  A    between atoms: _207  and  _210
REMARK   94  A    between atoms: _210  and  _211
REMARK   95  A    between atoms: _214  and  _216
REMARK   96  A    between atoms: _216  and  _217
REMARK   97  A    between atoms: _216  and  _219
REMARK   98  A    between atoms: _222  and  _224
REMARK   99  A    between atoms: _224  and  _225
REMARK  100  A    between atoms: _224  and  _227
REMARK  101  A    between atoms: _230  and  _232
REMARK  102  A    between atoms: _232  and  _233
REMARK  103  A    between atoms: _232  and  _235
REMARK  104  A    between atoms: _235  and  _236
REMARK  105  A    between atoms: _241  and  _243
REMARK  106  A    between atoms: _243  and  _244
REMARK  107  A    between atoms: _243  and  _246
REMARK  108  A    between atoms: _246  and  _247
REMARK  109  A    between atoms: _250  and  _252
REMARK  110  A    between atoms: _252  and  _253
REMARK  111  A    between atoms: _252  and  _255
REMARK  112  A    between atoms: _255  and  _256
REMARK  113  A    between atoms: _259  and  _261
REMARK  114  A    between atoms: _261  and  _262
REMARK  115  A    between atoms: _264  and  _266
REMARK  116  A    between atoms: _266  and  _267
REMARK  117  A    between atoms: _266  and  _269
REMARK  118  A    between atoms: _269  and  _270
REMARK  119  A    between atoms: _270  and  _271
REMARK  120  A    between atoms: _273  and  _275
REMARK  121  A    between atoms: _275  and  _276
REMARK  122  A    between atoms: _275  and  _278
REMARK  123  A    between atoms: _281  and  _283
REMARK  124  A    between atoms: _283  and  _284
REMARK  125  A    between atoms: _283  and  _286
REMARK  126  A    between atoms: _286  and  _287
REMARK  127  A    between atoms: _290  and  _292
REMARK  128  A    between atoms: _292  and  _293
REMARK  129  A    between atoms: _292  and  _295
REMARK  130  A    between atoms: _298  and  _300
REMARK  131  A    between atoms: _300  and  _301
REMARK  132  A    between atoms: _300  and  _303
REMARK  133  A    between atoms: _303  and  _304
REMARK  134  A    between atoms: _304  and  _305
REMARK  135  A    between atoms: _308  and  _310
REMARK  136  A    between atoms: _310  and  _311
REMARK  137  A    between atoms: _310  and  _313
REMARK  138  A    between atoms: _313  and  _314
REMARK  139  A    between atoms: _320  and  _322
REMARK  140  A    between atoms: _322  and  _323
REMARK  141  A    between atoms: _322  and  _325
REMARK  142  A    between atoms: _327  and  _329
REMARK  143  A    between atoms: _329  and  _330
REMARK  144  A    between atoms: _329  and  _332
REMARK  145  A    between atoms: _332  and  _333
REMARK  146  A    between atoms: _333  and  _334
REMARK  147  A    between atoms: _334  and  _335
REMARK  148  A    between atoms: _335  and  _336
REMARK  149  A    between atoms: _340  and  _342
REMARK  150  A    between atoms: _342  and  _343
REMARK  151  A    between atoms: _342  and  _345
REMARK  152  A    between atoms: _345  and  _346
REMARK  153  A    between atoms: _352  and  _354
REMARK  154  A    between atoms: _354  and  _355
REMARK  155  A    between atoms: _357  and  _359
REMARK  156  A    between atoms: _359  and  _360
REMARK  157  A    between atoms: _359  and  _362
REMARK  158  A    between atoms: _362  and  _363
REMARK  159  A    between atoms: _368  and  _370
REMARK  160  A    between atoms: _370  and  _371
REMARK  161  A    between atoms: _370  and  _373
REMARK  162  A    between atoms: _373  and  _374
REMARK  163  A    between atoms: _377  and  _379
REMARK  164  A    between atoms: _379  and  _380
REMARK  165  A    between atoms: _379  and  _382
REMARK  166  A    between atoms: _382  and  _383
REMARK  167  A    between atoms: _388  and  _390
REMARK  168  A    between atoms: _390  and  _391
REMARK  169  A    between atoms: _390  and  _393
REMARK  170  A    between atoms: _393  and  _394
REMARK  171  A    between atoms: _394  and  _395
REMARK  172  A    between atoms: _395  and  _396
REMARK  173  A    between atoms: _405  and  _407
REMARK  174  A    between atoms: _407  and  _408
REMARK  175  A    between atoms: _407  and  _410
REMARK  176  A    between atoms: _410  and  _411
REMARK  177  A    between atoms: _416  and  _418
REMARK  178  A    between atoms: _418  and  _419
REMARK  179  A    between atoms: _418  and  _421
REMARK  180  A    between atoms: _421  and  _422
REMARK  181  A    between atoms: _425  and  _427
REMARK  182  A    between atoms: _427  and  _428
REMARK  183  A    between atoms: _427  and  _430
REMARK  184  A    between atoms: _430  and  _431
REMARK  185  A    between atoms: _434  and  _436
REMARK  186  A    between atoms: _436  and  _437
REMARK  187  A    between atoms: _436  and  _439
REMARK  188  A    between atoms: _439  and  _440
REMARK  189  A    between atoms: _443  and  _445
REMARK  190  A    between atoms: _445  and  _446
REMARK  191  A    between atoms: _445  and  _448
REMARK  192  A    between atoms: _448  and  _449
REMARK  193  A    between atoms: _451  and  _453
REMARK  194  A    between atoms: _453  and  _454
REMARK  195  A    between atoms: _453  and  _456
REMARK  196  A    between atoms: _456  and  _457
REMARK  197  A    between atoms: _457  and  _458
REMARK  198  A    between atoms: _458  and  _459
REMARK  199  A    between atoms: _459  and  _460
REMARK  200  A    between atoms: _464  and  _466
REMARK  201  A    between atoms: _466  and  _467
REMARK  202  A    between atoms: _466  and  _469
REMARK  203  A    between atoms: _469  and  _470
REMARK  204  A    between atoms: _473  and  _475
REMARK  205  A    between atoms: _475  and  _476
REMARK  206  A    between atoms: _475  and  _478
REMARK  207  A    between atoms: _480  and  _482
REMARK  208  A    between atoms: _482  and  _483
REMARK  209  A    between atoms: _482  and  _485
REMARK  210  A    between atoms: _485  and  _486
REMARK  211  A    between atoms: _489  and  _491
REMARK  212  A    between atoms: _491  and  _492
REMARK  213  A    between atoms: _491  and  _494
REMARK  214  A    between atoms: _494  and  _495
REMARK  215  A    between atoms: _501  and  _503
REMARK  216  A    between atoms: _503  and  _504
REMARK  217  A    between atoms: _506  and  _508
REMARK  218  A    between atoms: _508  and  _509
REMARK  219  A    between atoms: _508  and  _511
REMARK  220  A    between atoms: _511  and  _512
REMARK  221  A    between atoms: _515  and  _517
REMARK  222  A    between atoms: _517  and  _518
REMARK  223  A    between atoms: _521  and  _523
REMARK  224  A    between atoms: _523  and  _524
REMARK  225  A    between atoms: _523  and  _526
REMARK  226  A    between atoms: _526  and  _527
REMARK  227  A    between atoms: _527  and  _528
REMARK  228  A    between atoms: _528  and  _529
REMARK                            x       y       z     vdW  Elec       q    Type
REMARK                         _______ _______ _______ _____ _____    ______ ____
ROOT
ATOM      1  O   HOH     1     -33.002   3.021  -7.699  0.00  0.00    +0.000 OA
ENDROOT
TORSDOF 0
REMARK  Name = ../refined-set-2016/4agc/4agc_pocket.pdb
REMARK  228 active torsions:
REMARK  status: ('A' for Active; 'I' for Inactive)
REMARK    1  A    between atoms: _1  and  _3
REMARK    2  A    between atoms: _3  and  _4
REMARK    3  A    between atoms: _3  and  _6
REMARK    4  A    between atoms: _6  and  _7
REMARK    5  A    between atoms: _10  and  _12
REMARK    6  A    between atoms: _12  and  _13
REMARK    7  A    between atoms: _12  and  _15
REMARK    8  A    between atoms: _15  and  _16
REMARK    9  A    between atoms: _18  and  _20
REMARK   10  A    between atoms: _20  and  _21
REMARK   11  A    between atoms: _20  and  _23
REMARK   12  A    between atoms: _23  and  _24
REMARK   13  A    between atoms: _27  and  _29
REMARK   14  A    between atoms: _29  and  _30
REMARK   15  A    between atoms: _29  and  _32
REMARK   16  A    between atoms: _32  and  _33
REMARK   17  A    between atoms: _33  and  _34
REMARK   18  A    between atoms: _34  and  _35
REMARK   19  A    between atoms: _35  and  _36
REMARK   20  A    between atoms: _41  and  _42
REMARK   21  A    between atoms: _47  and  _49
REMARK   22  A    between atoms: _49  and  _50
REMARK   23  A    between atoms: _49  and  _52
REMARK   24  A    between atoms: _52  and  _53
REMARK   25  A    between atoms: _56  and  _58
REMARK   26  A    between atoms: _58  and  _59
REMARK   27  A    between atoms: _61  and  _63
REMARK   28  A    between atoms: _63  and  _64
REMARK   29  A    between atoms: _63  and  _66
REMARK   30  A    between atoms: _66  and  _67
REMARK   31  A    between atoms: _67  and  _68
REMARK   32  A    between atoms: _73  and  _75
REMARK   33  A    between atoms: _75  and  _76
REMARK   34  A    between atoms: _75  and  _78
REMARK   35  A    between atoms: _81  and  _83
REMARK   36  A    between atoms: _83  and  _84
REMARK   37  A    between atoms: _83  and  _86
REMARK   38  A    between atoms: _86  and  _87
REMARK   39  A    between atoms: _90  and  _92
REMARK   40  A    between atoms: _92  and  _93
REMARK   41  A    between atoms: _92  and  _95
REMARK   42  A    between atoms: _95  and  _96
REMARK   43  A    between atoms: _96  and  _97
REMARK   44  A    between atoms: _100  and  _102
REMARK   45  A    between atoms: _102  and  _103
REMARK   46  A    between atoms: _106  and  _108
REMARK   47  A    between atoms: _108  and  _109
REMARK   48  A    between atoms: _108  and  _111
REMARK   49  A    between atoms: _111  and  _112
REMARK   50  A    between atoms: _115  and  _117
REMARK   51  A    between atoms: _117  and  _118
REMARK   52  A    between atoms: _117  and  _120
REMARK   53  A    between atoms: _123  and  _125
REMARK   54  A    between atoms: _125  and  _126
REMARK   55  A    between atoms: _129  and  _131
REMARK   56  A    between atoms: _131  and  _132
REMARK   57  A    between atoms: _131  and  _134
REMARK   58  A    between atoms: _137  and  _139
REMARK   59  A    between atoms: _139  and  _140
REMARK   60  A    between atoms: _139  and  _142
REMARK   61  A    between atoms: _142  and  _143
REMARK   62  A    between atoms: _143  and  _144
REMARK   63  A    between atoms: _144  and  _145
REMARK   64  A    between atoms: _145  and  _146
REMARK   65  A    between atoms: _150  and  _152
REMARK   66  A    between atoms: _152  and  _153
REMARK   67  A    between atoms: _152  and  _155
REMARK   68  A    between atoms: _155  and  _156
REMARK   69  A    between atoms: _156  and  _157
REMARK   70  A    between atoms: _159  and  _161
REMARK   71  A    between atoms: _161  and  _162
REMARK   72  A    between atoms: _161  and  _164
REMARK   73  A    between atoms: _164  and  _165
REMARK   74  A    between atoms: _168  and  _170
REMARK   75  A    between atoms: _170  and  _171
REMARK   76  A    between atoms: _170  and  _173
REMARK   77  A    between atoms: _173  and  _174
REMARK   78  A    between atoms: _174  and  _175
REMARK   79  A    between atoms: _178  and  _180
REMARK   80  A    between atoms: _180  and  _181
REMARK   81  A    between atoms: _180  and  _183
REMARK   82  A    between atoms: _183  and  _184
REMARK   83  A    between atoms: _187  and  _189
REMARK   84  A    between atoms: _189  and  _190
REMARK   85  A    between atoms: _189  and  _192
REMARK   86  A    between atoms: _192  and  _193
REMARK   87  A    between atoms: _196  and  _198
REMARK   88  A    between atoms: _198  and  _199
REMARK   89  A    between atoms: _198  and  _201
REMARK   90  A    between atoms: _201  and  _202
REMARK   91  A    between atoms: _205  and  _207
REMARK   92  A    between atoms: _207  and  _208
REMARK   93  A    between atoms: _207  and  _210
REMARK   94  A    between atoms: _210  and  _211
REMARK   95  A    between atoms: _214  and  _216
REMARK   96  A    between atoms: _216  and  _217
REMARK   97  A    between atoms: _216  and  _219
REMARK   98  A    between atoms: _222  and  _224
REMARK   99  A    between atoms: _224  and  _225
REMARK  100  A    between atoms: _224  and  _227
REMARK  101  A    between atoms: _230  and  _232
REMARK  102  A    between atoms: _232  and  _233
REMARK  103  A    between atoms: _232  and  _235
REMARK  104  A    between atoms: _235  and  _236
REMARK  105  A    between atoms: _241  and  _243
REMARK  106  A    between atoms: _243  and  _244
REMARK  107  A    between atoms: _243  and  _246
REMARK  108  A    between atoms: _246  and  _247
REMARK  109  A    between atoms: _250  and  _252
REMARK  110  A    between atoms: _252  and  _253
REMARK  111  A    between atoms: _252  and  _255
REMARK  112  A    between atoms: _255  and  _256
REMARK  113  A    between atoms: _259  and  _261
REMARK  114  A    between atoms: _261  and  _262
REMARK  115  A    between atoms: _264  and  _266
REMARK  116  A    between atoms: _266  and  _267
REMARK  117  A    between atoms: _266  and  _269
REMARK  118  A    between atoms: _269  and  _270
REMARK  119  A    between atoms: _270  and  _271
REMARK  120  A    between atoms: _273  and  _275
REMARK  121  A    between atoms: _275  and  _276
REMARK  122  A    between atoms: _275  and  _278
REMARK  123  A    between atoms: _281  and  _283
REMARK  124  A    between atoms: _283  and  _284
REMARK  125  A    between atoms: _283  and  _286
REMARK  126  A    between atoms: _286  and  _287
REMARK  127  A    between atoms: _290  and  _292
REMARK  128  A    between atoms: _292  and  _293
REMARK  129  A    between atoms: _292  and  _295
REMARK  130  A    between atoms: _298  and  _300
REMARK  131  A    between atoms: _300  and  _301
REMARK  132  A    between atoms: _300  and  _303
REMARK  133  A    between atoms: _303  and  _304
REMARK  134  A    between atoms: _304  and  _305
REMARK  135  A    between atoms: _308  and  _310
REMARK  136  A    between atoms: _310  and  _311
REMARK  137  A    between atoms: _310  and  _313
REMARK  138  A    between atoms: _313  and  _314
REMARK  139  A    between atoms: _320  and  _322
REMARK  140  A    between atoms: _322  and  _323
REMARK  141  A    between atoms: _322  and  _325
REMARK  142  A    between atoms: _327  and  _329
REMARK  143  A    between atoms: _329  and  _330
REMARK  144  A    between atoms: _329  and  _332
REMARK  145  A    between atoms: _332  and  _333
REMARK  146  A    between atoms: _333  and  _334
REMARK  147  A    between atoms: _334  and  _335
REMARK  148  A    between atoms: _335  and  _336
REMARK  149  A    between atoms: _340  and  _342
REMARK  150  A    between atoms: _342  and  _343
REMARK  151  A    between atoms: _342  and  _345
REMARK  152  A    between atoms: _345  and  _346
REMARK  153  A    between atoms: _352  and  _354
REMARK  154  A    between atoms: _354  and  _355
REMARK  155  A    between atoms: _357  and  _359
REMARK  156  A    between atoms: _359  and  _360
REMARK  157  A    between atoms: _359  and  _362
REMARK  158  A    between atoms: _362  and  _363
REMARK  159  A    between atoms: _368  and  _370
REMARK  160  A    between atoms: _370  and  _371
REMARK  161  A    between atoms: _370  and  _373
REMARK  162  A    between atoms: _373  and  _374
REMARK  163  A    between atoms: _377  and  _379
REMARK  164  A    between atoms: _379  and  _380
REMARK  165  A    between atoms: _379  and  _382
REMARK  166  A    between atoms: _382  and  _383
REMARK  167  A    between atoms: _388  and  _390
REMARK  168  A    between atoms: _390  and  _391
REMARK  169  A    between atoms: _390  and  _393
REMARK  170  A    between atoms: _393  and  _394
REMARK  171  A    between atoms: _394  and  _395
REMARK  172  A    between atoms: _395  and  _396
REMARK  173  A    between atoms: _405  and  _407
REMARK  174  A    between atoms: _407  and  _408
REMARK  175  A    between atoms: _407  and  _410
REMARK  176  A    between atoms: _410  and  _411
REMARK  177  A    between atoms: _416  and  _418
REMARK  178  A    between atoms: _418  and  _419
REMARK  179  A    between atoms: _418  and  _421
REMARK  180  A    between atoms: _421  and  _422
REMARK  181  A    between atoms: _425  and  _427
REMARK  182  A    between atoms: _427  and  _428
REMARK  183  A    between atoms: _427  and  _430
REMARK  184  A    between atoms: _430  and  _431
REMARK  185  A    between atoms: _434  and  _436
REMARK  186  A    between atoms: _436  and  _437
REMARK  187  A    between atoms: _436  and  _439
REMARK  188  A    between atoms: _439  and  _440
REMARK  189  A    between atoms: _443  and  _445
REMARK  190  A    between atoms: _445  and  _446
REMARK  191  A    between atoms: _445  and  _448
REMARK  192  A    between atoms: _448  and  _449
REMARK  193  A    between atoms: _451  and  _453
REMARK  194  A    between atoms: _453  and  _454
REMARK  195  A    between atoms: _453  and  _456
REMARK  196  A    between atoms: _456  and  _457
REMARK  197  A    between atoms: _457  and  _458
REMARK  198  A    between atoms: _458  and  _459
REMARK  199  A    between atoms: _459  and  _460
REMARK  200  A    between atoms: _464  and  _466
REMARK  201  A    between atoms: _466  and  _467
REMARK  202  A    between atoms: _466  and  _469
REMARK  203  A    between atoms: _469  and  _470
REMARK  204  A    between atoms: _473  and  _475
REMARK  205  A    between atoms: _475  and  _476
REMARK  206  A    between atoms: _475  and  _478
REMARK  207  A    between atoms: _480  and  _482
REMARK  208  A    between atoms: _482  and  _483
REMARK  209  A    between atoms: _482  and  _485
REMARK  210  A    between atoms: _485  and  _486
REMARK  211  A    between atoms: _489  and  _491
REMARK  212  A    between atoms: _491  and  _492
REMARK  213  A    between atoms: _491  and  _494
REMARK  214  A    between atoms: _494  and  _495
REMARK  215  A    between atoms: _501  and  _503
REMARK  216  A    between atoms: _503  and  _504
REMARK  217  A    between atoms: _506  and  _508
REMARK  218  A    between atoms: _508  and  _509
REMARK  219  A    between atoms: _508  and  _511
REMARK  220  A    between atoms: _511  and  _512
REMARK  221  A    between atoms: _515  and  _517
REMARK  222  A    between atoms: _517  and  _518
REMARK  223  A    between atoms: _521  and  _523
REMARK  224  A    between atoms: _523  and  _524
REMARK  225  A    between atoms: _523  and  _526
REMARK  226  A    between atoms: _526  and  _527
REMARK  227  A    between atoms: _527  and  _528
REMARK  228  A    between atoms: _528  and  _529
REMARK                            x       y       z     vdW  Elec       q    Type
REMARK                         _______ _______ _______ _____ _____    ______ ____
ROOT
ATOM      1  O   HOH     1     -24.439   9.982 -11.902  0.00  0.00    +0.000 OA
ENDROOT
TORSDOF 0
REMARK  Name = ../refined-set-2016/4agc/4agc_pocket.pdb
REMARK  228 active torsions:
REMARK  status: ('A' for Active; 'I' for Inactive)
REMARK    1  A    between atoms: _1  and  _3
REMARK    2  A    between atoms: _3  and  _4
REMARK    3  A    between atoms: _3  and  _6
REMARK    4  A    between atoms: _6  and  _7
REMARK    5  A    between atoms: _10  and  _12
REMARK    6  A    between atoms: _12  and  _13
REMARK    7  A    between atoms: _12  and  _15
REMARK    8  A    between atoms: _15  and  _16
REMARK    9  A    between atoms: _18  and  _20
REMARK   10  A    between atoms: _20  and  _21
REMARK   11  A    between atoms: _20  and  _23
REMARK   12  A    between atoms: _23  and  _24
REMARK   13  A    between atoms: _27  and  _29
REMARK   14  A    between atoms: _29  and  _30
REMARK   15  A    between atoms: _29  and  _32
REMARK   16  A    between atoms: _32  and  _33
REMARK   17  A    between atoms: _33  and  _34
REMARK   18  A    between atoms: _34  and  _35
REMARK   19  A    between atoms: _35  and  _36
REMARK   20  A    between atoms: _41  and  _42
REMARK   21  A    between atoms: _47  and  _49
REMARK   22  A    between atoms: _49  and  _50
REMARK   23  A    between atoms: _49  and  _52
REMARK   24  A    between atoms: _52  and  _53
REMARK   25  A    between atoms: _56  and  _58
REMARK   26  A    between atoms: _58  and  _59
REMARK   27  A    between atoms: _61  and  _63
REMARK   28  A    between atoms: _63  and  _64
REMARK   29  A    between atoms: _63  and  _66
REMARK   30  A    between atoms: _66  and  _67
REMARK   31  A    between atoms: _67  and  _68
REMARK   32  A    between atoms: _73  and  _75
REMARK   33  A    between atoms: _75  and  _76
REMARK   34  A    between atoms: _75  and  _78
REMARK   35  A    between atoms: _81  and  _83
REMARK   36  A    between atoms: _83  and  _84
REMARK   37  A    between atoms: _83  and  _86
REMARK   38  A    between atoms: _86  and  _87
REMARK   39  A    between atoms: _90  and  _92
REMARK   40  A    between atoms: _92  and  _93
REMARK   41  A    between atoms: _92  and  _95
REMARK   42  A    between atoms: _95  and  _96
REMARK   43  A    between atoms: _96  and  _97
REMARK   44  A    between atoms: _100  and  _102
REMARK   45  A    between atoms: _102  and  _103
REMARK   46  A    between atoms: _106  and  _108
REMARK   47  A    between atoms: _108  and  _109
REMARK   48  A    between atoms: _108  and  _111
REMARK   49  A    between atoms: _111  and  _112
REMARK   50  A    between atoms: _115  and  _117
REMARK   51  A    between atoms: _117  and  _118
REMARK   52  A    between atoms: _117  and  _120
REMARK   53  A    between atoms: _123  and  _125
REMARK   54  A    between atoms: _125  and  _126
REMARK   55  A    between atoms: _129  and  _131
REMARK   56  A    between atoms: _131  and  _132
REMARK   57  A    between atoms: _131  and  _134
REMARK   58  A    between atoms: _137  and  _139
REMARK   59  A    between atoms: _139  and  _140
REMARK   60  A    between atoms: _139  and  _142
REMARK   61  A    between atoms: _142  and  _143
REMARK   62  A    between atoms: _143  and  _144
REMARK   63  A    between atoms: _144  and  _145
REMARK   64  A    between atoms: _145  and  _146
REMARK   65  A    between atoms: _150  and  _152
REMARK   66  A    between atoms: _152  and  _153
REMARK   67  A    between atoms: _152  and  _155
REMARK   68  A    between atoms: _155  and  _156
REMARK   69  A    between atoms: _156  and  _157
REMARK   70  A    between atoms: _159  and  _161
REMARK   71  A    between atoms: _161  and  _162
REMARK   72  A    between atoms: _161  and  _164
REMARK   73  A    between atoms: _164  and  _165
REMARK   74  A    between atoms: _168  and  _170
REMARK   75  A    between atoms: _170  and  _171
REMARK   76  A    between atoms: _170  and  _173
REMARK   77  A    between atoms: _173  and  _174
REMARK   78  A    between atoms: _174  and  _175
REMARK   79  A    between atoms: _178  and  _180
REMARK   80  A    between atoms: _180  and  _181
REMARK   81  A    between atoms: _180  and  _183
REMARK   82  A    between atoms: _183  and  _184
REMARK   83  A    between atoms: _187  and  _189
REMARK   84  A    between atoms: _189  and  _190
REMARK   85  A    between atoms: _189  and  _192
REMARK   86  A    between atoms: _192  and  _193
REMARK   87  A    between atoms: _196  and  _198
REMARK   88  A    between atoms: _198  and  _199
REMARK   89  A    between atoms: _198  and  _201
REMARK   90  A    between atoms: _201  and  _202
REMARK   91  A    between atoms: _205  and  _207
REMARK   92  A    between atoms: _207  and  _208
REMARK   93  A    between atoms: _207  and  _210
REMARK   94  A    between atoms: _210  and  _211
REMARK   95  A    between atoms: _214  and  _216
REMARK   96  A    between atoms: _216  and  _217
REMARK   97  A    between atoms: _216  and  _219
REMARK   98  A    between atoms: _222  and  _224
REMARK   99  A    between atoms: _224  and  _225
REMARK  100  A    between atoms: _224  and  _227
REMARK  101  A    between atoms: _230  and  _232
REMARK  102  A    between atoms: _232  and  _233
REMARK  103  A    between atoms: _232  and  _235
REMARK  104  A    between atoms: _235  and  _236
REMARK  105  A    between atoms: _241  and  _243
REMARK  106  A    between atoms: _243  and  _244
REMARK  107  A    between atoms: _243  and  _246
REMARK  108  A    between atoms: _246  and  _247
REMARK  109  A    between atoms: _250  and  _252
REMARK  110  A    between atoms: _252  and  _253
REMARK  111  A    between atoms: _252  and  _255
REMARK  112  A    between atoms: _255  and  _256
REMARK  113  A    between atoms: _259  and  _261
REMARK  114  A    between atoms: _261  and  _262
REMARK  115  A    between atoms: _264  and  _266
REMARK  116  A    between atoms: _266  and  _267
REMARK  117  A    between atoms: _266  and  _269
REMARK  118  A    between atoms: _269  and  _270
REMARK  119  A    between atoms: _270  and  _271
REMARK  120  A    between atoms: _273  and  _275
REMARK  121  A    between atoms: _275  and  _276
REMARK  122  A    between atoms: _275  and  _278
REMARK  123  A    between atoms: _281  and  _283
REMARK  124  A    between atoms: _283  and  _284
REMARK  125  A    between atoms: _283  and  _286
REMARK  126  A    between atoms: _286  and  _287
REMARK  127  A    between atoms: _290  and  _292
REMARK  128  A    between atoms: _292  and  _293
REMARK  129  A    between atoms: _292  and  _295
REMARK  130  A    between atoms: _298  and  _300
REMARK  131  A    between atoms: _300  and  _301
REMARK  132  A    between atoms: _300  and  _303
REMARK  133  A    between atoms: _303  and  _304
REMARK  134  A    between atoms: _304  and  _305
REMARK  135  A    between atoms: _308  and  _310
REMARK  136  A    between atoms: _310  and  _311
REMARK  137  A    between atoms: _310  and  _313
REMARK  138  A    between atoms: _313  and  _314
REMARK  139  A    between atoms: _320  and  _322
REMARK  140  A    between atoms: _322  and  _323
REMARK  141  A    between atoms: _322  and  _325
REMARK  142  A    between atoms: _327  and  _329
REMARK  143  A    between atoms: _329  and  _330
REMARK  144  A    between atoms: _329  and  _332
REMARK  145  A    between atoms: _332  and  _333
REMARK  146  A    between atoms: _333  and  _334
REMARK  147  A    between atoms: _334  and  _335
REMARK  148  A    between atoms: _335  and  _336
REMARK  149  A    between atoms: _340  and  _342
REMARK  150  A    between atoms: _342  and  _343
REMARK  151  A    between atoms: _342  and  _345
REMARK  152  A    between atoms: _345  and  _346
REMARK  153  A    between atoms: _352  and  _354
REMARK  154  A    between atoms: _354  and  _355
REMARK  155  A    between atoms: _357  and  _359
REMARK  156  A    between atoms: _359  and  _360
REMARK  157  A    between atoms: _359  and  _362
REMARK  158  A    between atoms: _362  and  _363
REMARK  159  A    between atoms: _368  and  _370
REMARK  160  A    between atoms: _370  and  _371
REMARK  161  A    between atoms: _370  and  _373
REMARK  162  A    between atoms: _373  and  _374
REMARK  163  A    between atoms: _377  and  _379
REMARK  164  A    between atoms: _379  and  _380
REMARK  165  A    between atoms: _379  and  _382
REMARK  166  A    between atoms: _382  and  _383
REMARK  167  A    between atoms: _388  and  _390
REMARK  168  A    between atoms: _390  and  _391
REMARK  169  A    between atoms: _390  and  _393
REMARK  170  A    between atoms: _393  and  _394
REMARK  171  A    between atoms: _394  and  _395
REMARK  172  A    between atoms: _395  and  _396
REMARK  173  A    between atoms: _405  and  _407
REMARK  174  A    between atoms: _407  and  _408
REMARK  175  A    between atoms: _407  and  _410
REMARK  176  A    between atoms: _410  and  _411
REMARK  177  A    between atoms: _416  and  _418
REMARK  178  A    between atoms: _418  and  _419
REMARK  179  A    between atoms: _418  and  _421
REMARK  180  A    between atoms: _421  and  _422
REMARK  181  A    between atoms: _425  and  _427
REMARK  182  A    between atoms: _427  and  _428
REMARK  183  A    between atoms: _427  and  _430
REMARK  184  A    between atoms: _430  and  _431
REMARK  185  A    between atoms: _434  and  _436
REMARK  186  A    between atoms: _436  and  _437
REMARK  187  A    between atoms: _436  and  _439
REMARK  188  A    between atoms: _439  and  _440
REMARK  189  A    between atoms: _443  and  _445
REMARK  190  A    between atoms: _445  and  _446
REMARK  191  A    between atoms: _445  and  _448
REMARK  192  A    between atoms: _448  and  _449
REMARK  193  A    between atoms: _451  and  _453
REMARK  194  A    between atoms: _453  and  _454
REMARK  195  A    between atoms: _453  and  _456
REMARK  196  A    between atoms: _456  and  _457
REMARK  197  A    between atoms: _457  and  _458
REMARK  198  A    between atoms: _458  and  _459
REMARK  199  A    between atoms: _459  and  _460
REMARK  200  A    between atoms: _464  and  _466
REMARK  201  A    between atoms: _466  and  _467
REMARK  202  A    between atoms: _466  and  _469
REMARK  203  A    between atoms: _469  and  _470
REMARK  204  A    between atoms: _473  and  _475
REMARK  205  A    between atoms: _475  and  _476
REMARK  206  A    between atoms: _475  and  _478
REMARK  207  A    between atoms: _480  and  _482
REMARK  208  A    between atoms: _482  and  _483
REMARK  209  A    between atoms: _482  and  _485
REMARK  210  A    between atoms: _485  and  _486
REMARK  211  A    between atoms: _489  and  _491
REMARK  212  A    between atoms: _491  and  _492
REMARK  213  A    between atoms: _491  and  _494
REMARK  214  A    between atoms: _494  and  _495
REMARK  215  A    between atoms: _501  and  _503
REMARK  216  A    between atoms: _503  and  _504
REMARK  217  A    between atoms: _506  and  _508
REMARK  218  A    between atoms: _508  and  _509
REMARK  219  A    between atoms: _508  and  _511
REMARK  220  A    between atoms: _511  and  _512
REMARK  221  A    between atoms: _515  and  _517
REMARK  222  A    between atoms: _517  and  _518
REMARK  223  A    between atoms: _521  and  _523
REMARK  224  A    between atoms: _523  and  _524
REMARK  225  A    between atoms: _523  and  _526
REMARK  226  A    between atoms: _526  and  _527
REMARK  227  A    between atoms: _527  and  _528
REMARK  228  A    between atoms: _528  and  _529
REMARK                            x       y       z     vdW  Elec       q    Type
REMARK                         _______ _______ _______ _____ _____    ______ ____
ROOT
ATOM      1  O   HOH     1     -21.050  10.664 -13.728  0.00  0.00    +0.000 OA
ENDROOT
TORSDOF 0
REMARK  Name = ../refined-set-2016/4agc/4agc_pocket.pdb
REMARK  228 active torsions:
REMARK  status: ('A' for Active; 'I' for Inactive)
REMARK    1  A    between atoms: _1  and  _3
REMARK    2  A    between atoms: _3  and  _4
REMARK    3  A    between atoms: _3  and  _6
REMARK    4  A    between atoms: _6  and  _7
REMARK    5  A    between atoms: _10  and  _12
REMARK    6  A    between atoms: _12  and  _13
REMARK    7  A    between atoms: _12  and  _15
REMARK    8  A    between atoms: _15  and  _16
REMARK    9  A    between atoms: _18  and  _20
REMARK   10  A    between atoms: _20  and  _21
REMARK   11  A    between atoms: _20  and  _23
REMARK   12  A    between atoms: _23  and  _24
REMARK   13  A    between atoms: _27  and  _29
REMARK   14  A    between atoms: _29  and  _30
REMARK   15  A    between atoms: _29  and  _32
REMARK   16  A    between atoms: _32  and  _33
REMARK   17  A    between atoms: _33  and  _34
REMARK   18  A    between atoms: _34  and  _35
REMARK   19  A    between atoms: _35  and  _36
REMARK   20  A    between atoms: _41  and  _42
REMARK   21  A    between atoms: _47  and  _49
REMARK   22  A    between atoms: _49  and  _50
REMARK   23  A    between atoms: _49  and  _52
REMARK   24  A    between atoms: _52  and  _53
REMARK   25  A    between atoms: _56  and  _58
REMARK   26  A    between atoms: _58  and  _59
REMARK   27  A    between atoms: _61  and  _63
REMARK   28  A    between atoms: _63  and  _64
REMARK   29  A    between atoms: _63  and  _66
REMARK   30  A    between atoms: _66  and  _67
REMARK   31  A    between atoms: _67  and  _68
REMARK   32  A    between atoms: _73  and  _75
REMARK   33  A    between atoms: _75  and  _76
REMARK   34  A    between atoms: _75  and  _78
REMARK   35  A    between atoms: _81  and  _83
REMARK   36  A    between atoms: _83  and  _84
REMARK   37  A    between atoms: _83  and  _86
REMARK   38  A    between atoms: _86  and  _87
REMARK   39  A    between atoms: _90  and  _92
REMARK   40  A    between atoms: _92  and  _93
REMARK   41  A    between atoms: _92  and  _95
REMARK   42  A    between atoms: _95  and  _96
REMARK   43  A    between atoms: _96  and  _97
REMARK   44  A    between atoms: _100  and  _102
REMARK   45  A    between atoms: _102  and  _103
REMARK   46  A    between atoms: _106  and  _108
REMARK   47  A    between atoms: _108  and  _109
REMARK   48  A    between atoms: _108  and  _111
REMARK   49  A    between atoms: _111  and  _112
REMARK   50  A    between atoms: _115  and  _117
REMARK   51  A    between atoms: _117  and  _118
REMARK   52  A    between atoms: _117  and  _120
REMARK   53  A    between atoms: _123  and  _125
REMARK   54  A    between atoms: _125  and  _126
REMARK   55  A    between atoms: _129  and  _131
REMARK   56  A    between atoms: _131  and  _132
REMARK   57  A    between atoms: _131  and  _134
REMARK   58  A    between atoms: _137  and  _139
REMARK   59  A    between atoms: _139  and  _140
REMARK   60  A    between atoms: _139  and  _142
REMARK   61  A    between atoms: _142  and  _143
REMARK   62  A    between atoms: _143  and  _144
REMARK   63  A    between atoms: _144  and  _145
REMARK   64  A    between atoms: _145  and  _146
REMARK   65  A    between atoms: _150  and  _152
REMARK   66  A    between atoms: _152  and  _153
REMARK   67  A    between atoms: _152  and  _155
REMARK   68  A    between atoms: _155  and  _156
REMARK   69  A    between atoms: _156  and  _157
REMARK   70  A    between atoms: _159  and  _161
REMARK   71  A    between atoms: _161  and  _162
REMARK   72  A    between atoms: _161  and  _164
REMARK   73  A    between atoms: _164  and  _165
REMARK   74  A    between atoms: _168  and  _170
REMARK   75  A    between atoms: _170  and  _171
REMARK   76  A    between atoms: _170  and  _173
REMARK   77  A    between atoms: _173  and  _174
REMARK   78  A    between atoms: _174  and  _175
REMARK   79  A    between atoms: _178  and  _180
REMARK   80  A    between atoms: _180  and  _181
REMARK   81  A    between atoms: _180  and  _183
REMARK   82  A    between atoms: _183  and  _184
REMARK   83  A    between atoms: _187  and  _189
REMARK   84  A    between atoms: _189  and  _190
REMARK   85  A    between atoms: _189  and  _192
REMARK   86  A    between atoms: _192  and  _193
REMARK   87  A    between atoms: _196  and  _198
REMARK   88  A    between atoms: _198  and  _199
REMARK   89  A    between atoms: _198  and  _201
REMARK   90  A    between atoms: _201  and  _202
REMARK   91  A    between atoms: _205  and  _207
REMARK   92  A    between atoms: _207  and  _208
REMARK   93  A    between atoms: _207  and  _210
REMARK   94  A    between atoms: _210  and  _211
REMARK   95  A    between atoms: _214  and  _216
REMARK   96  A    between atoms: _216  and  _217
REMARK   97  A    between atoms: _216  and  _219
REMARK   98  A    between atoms: _222  and  _224
REMARK   99  A    between atoms: _224  and  _225
REMARK  100  A    between atoms: _224  and  _227
REMARK  101  A    between atoms: _230  and  _232
REMARK  102  A    between atoms: _232  and  _233
REMARK  103  A    between atoms: _232  and  _235
REMARK  104  A    between atoms: _235  and  _236
REMARK  105  A    between atoms: _241  and  _243
REMARK  106  A    between atoms: _243  and  _244
REMARK  107  A    between atoms: _243  and  _246
REMARK  108  A    between atoms: _246  and  _247
REMARK  109  A    between atoms: _250  and  _252
REMARK  110  A    between atoms: _252  and  _253
REMARK  111  A    between atoms: _252  and  _255
REMARK  112  A    between atoms: _255  and  _256
REMARK  113  A    between atoms: _259  and  _261
REMARK  114  A    between atoms: _261  and  _262
REMARK  115  A    between atoms: _264  and  _266
REMARK  116  A    between atoms: _266  and  _267
REMARK  117  A    between atoms: _266  and  _269
REMARK  118  A    between atoms: _269  and  _270
REMARK  119  A    between atoms: _270  and  _271
REMARK  120  A    between atoms: _273  and  _275
REMARK  121  A    between atoms: _275  and  _276
REMARK  122  A    between atoms: _275  and  _278
REMARK  123  A    between atoms: _281  and  _283
REMARK  124  A    between atoms: _283  and  _284
REMARK  125  A    between atoms: _283  and  _286
REMARK  126  A    between atoms: _286  and  _287
REMARK  127  A    between atoms: _290  and  _292
REMARK  128  A    between atoms: _292  and  _293
REMARK  129  A    between atoms: _292  and  _295
REMARK  130  A    between atoms: _298  and  _300
REMARK  131  A    between atoms: _300  and  _301
REMARK  132  A    between atoms: _300  and  _303
REMARK  133  A    between atoms: _303  and  _304
REMARK  134  A    between atoms: _304  and  _305
REMARK  135  A    between atoms: _308  and  _310
REMARK  136  A    between atoms: _310  and  _311
REMARK  137  A    between atoms: _310  and  _313
REMARK  138  A    between atoms: _313  and  _314
REMARK  139  A    between atoms: _320  and  _322
REMARK  140  A    between atoms: _322  and  _323
REMARK  141  A    between atoms: _322  and  _325
REMARK  142  A    between atoms: _327  and  _329
REMARK  143  A    between atoms: _329  and  _330
REMARK  144  A    between atoms: _329  and  _332
REMARK  145  A    between atoms: _332  and  _333
REMARK  146  A    between atoms: _333  and  _334
REMARK  147  A    between atoms: _334  and  _335
REMARK  148  A    between atoms: _335  and  _336
REMARK  149  A    between atoms: _340  and  _342
REMARK  150  A    between atoms: _342  and  _343
REMARK  151  A    between atoms: _342  and  _345
REMARK  152  A    between atoms: _345  and  _346
REMARK  153  A    between atoms: _352  and  _354
REMARK  154  A    between atoms: _354  and  _355
REMARK  155  A    between atoms: _357  and  _359
REMARK  156  A    between atoms: _359  and  _360
REMARK  157  A    between atoms: _359  and  _362
REMARK  158  A    between atoms: _362  and  _363
REMARK  159  A    between atoms: _368  and  _370
REMARK  160  A    between atoms: _370  and  _371
REMARK  161  A    between atoms: _370  and  _373
REMARK  162  A    between atoms: _373  and  _374
REMARK  163  A    between atoms: _377  and  _379
REMARK  164  A    between atoms: _379  and  _380
REMARK  165  A    between atoms: _379  and  _382
REMARK  166  A    between atoms: _382  and  _383
REMARK  167  A    between atoms: _388  and  _390
REMARK  168  A    between atoms: _390  and  _391
REMARK  169  A    between atoms: _390  and  _393
REMARK  170  A    between atoms: _393  and  _394
REMARK  171  A    between atoms: _394  and  _395
REMARK  172  A    between atoms: _395  and  _396
REMARK  173  A    between atoms: _405  and  _407
REMARK  174  A    between atoms: _407  and  _408
REMARK  175  A    between atoms: _407  and  _410
REMARK  176  A    between atoms: _410  and  _411
REMARK  177  A    between atoms: _416  and  _418
REMARK  178  A    between atoms: _418  and  _419
REMARK  179  A    between atoms: _418  and  _421
REMARK  180  A    between atoms: _421  and  _422
REMARK  181  A    between atoms: _425  and  _427
REMARK  182  A    between atoms: _427  and  _428
REMARK  183  A    between atoms: _427  and  _430
REMARK  184  A    between atoms: _430  and  _431
REMARK  185  A    between atoms: _434  and  _436
REMARK  186  A    between atoms: _436  and  _437
REMARK  187  A    between atoms: _436  and  _439
REMARK  188  A    between atoms: _439  and  _440
REMARK  189  A    between atoms: _443  and  _445
REMARK  190  A    between atoms: _445  and  _446
REMARK  191  A    between atoms: _445  and  _448
REMARK  192  A    between atoms: _448  and  _449
REMARK  193  A    between atoms: _451  and  _453
REMARK  194  A    between atoms: _453  and  _454
REMARK  195  A    between atoms: _453  and  _456
REMARK  196  A    between atoms: _456  and  _457
REMARK  197  A    between atoms: _457  and  _458
REMARK  198  A    between atoms: _458  and  _459
REMARK  199  A    between atoms: _459  and  _460
REMARK  200  A    between atoms: _464  and  _466
REMARK  201  A    between atoms: _466  and  _467
REMARK  202  A    between atoms: _466  and  _469
REMARK  203  A    between atoms: _469  and  _470
REMARK  204  A    between atoms: _473  and  _475
REMARK  205  A    between atoms: _475  and  _476
REMARK  206  A    between atoms: _475  and  _478
REMARK  207  A    between atoms: _480  and  _482
REMARK  208  A    between atoms: _482  and  _483
REMARK  209  A    between atoms: _482  and  _485
REMARK  210  A    between atoms: _485  and  _486
REMARK  211  A    between atoms: _489  and  _491
REMARK  212  A    between atoms: _491  and  _492
REMARK  213  A    between atoms: _491  and  _494
REMARK  214  A    between atoms: _494  and  _495
REMARK  215  A    between atoms: _501  and  _503
REMARK  216  A    between atoms: _503  and  _504
REMARK  217  A    between atoms: _506  and  _508
REMARK  218  A    between atoms: _508  and  _509
REMARK  219  A    between atoms: _508  and  _511
REMARK  220  A    between atoms: _511  and  _512
REMARK  221  A    between atoms: _515  and  _517
REMARK  222  A    between atoms: _517  and  _518
REMARK  223  A    between atoms: _521  and  _523
REMARK  224  A    between atoms: _523  and  _524
REMARK  225  A    between atoms: _523  and  _526
REMARK  226  A    between atoms: _526  and  _527
REMARK  227  A    between atoms: _527  and  _528
REMARK  228  A    between atoms: _528  and  _529
REMARK                            x       y       z     vdW  Elec       q    Type
REMARK                         _______ _______ _______ _____ _____    ______ ____
ROOT
ATOM      1  O   HOH     1     -15.429   8.226 -17.478  0.00  0.00    +0.000 OA
ENDROOT
TORSDOF 0
REMARK  Name = ../refined-set-2016/4agc/4agc_pocket.pdb
REMARK  228 active torsions:
REMARK  status: ('A' for Active; 'I' for Inactive)
REMARK    1  A    between atoms: _1  and  _3
REMARK    2  A    between atoms: _3  and  _4
REMARK    3  A    between atoms: _3  and  _6
REMARK    4  A    between atoms: _6  and  _7
REMARK    5  A    between atoms: _10  and  _12
REMARK    6  A    between atoms: _12  and  _13
REMARK    7  A    between atoms: _12  and  _15
REMARK    8  A    between atoms: _15  and  _16
REMARK    9  A    between atoms: _18  and  _20
REMARK   10  A    between atoms: _20  and  _21
REMARK   11  A    between atoms: _20  and  _23
REMARK   12  A    between atoms: _23  and  _24
REMARK   13  A    between atoms: _27  and  _29
REMARK   14  A    between atoms: _29  and  _30
REMARK   15  A    between atoms: _29  and  _32
REMARK   16  A    between atoms: _32  and  _33
REMARK   17  A    between atoms: _33  and  _34
REMARK   18  A    between atoms: _34  and  _35
REMARK   19  A    between atoms: _35  and  _36
REMARK   20  A    between atoms: _41  and  _42
REMARK   21  A    between atoms: _47  and  _49
REMARK   22  A    between atoms: _49  and  _50
REMARK   23  A    between atoms: _49  and  _52
REMARK   24  A    between atoms: _52  and  _53
REMARK   25  A    between atoms: _56  and  _58
REMARK   26  A    between atoms: _58  and  _59
REMARK   27  A    between atoms: _61  and  _63
REMARK   28  A    between atoms: _63  and  _64
REMARK   29  A    between atoms: _63  and  _66
REMARK   30  A    between atoms: _66  and  _67
REMARK   31  A    between atoms: _67  and  _68
REMARK   32  A    between atoms: _73  and  _75
REMARK   33  A    between atoms: _75  and  _76
REMARK   34  A    between atoms: _75  and  _78
REMARK   35  A    between atoms: _81  and  _83
REMARK   36  A    between atoms: _83  and  _84
REMARK   37  A    between atoms: _83  and  _86
REMARK   38  A    between atoms: _86  and  _87
REMARK   39  A    between atoms: _90  and  _92
REMARK   40  A    between atoms: _92  and  _93
REMARK   41  A    between atoms: _92  and  _95
REMARK   42  A    between atoms: _95  and  _96
REMARK   43  A    between atoms: _96  and  _97
REMARK   44  A    between atoms: _100  and  _102
REMARK   45  A    between atoms: _102  and  _103
REMARK   46  A    between atoms: _106  and  _108
REMARK   47  A    between atoms: _108  and  _109
REMARK   48  A    between atoms: _108  and  _111
REMARK   49  A    between atoms: _111  and  _112
REMARK   50  A    between atoms: _115  and  _117
REMARK   51  A    between atoms: _117  and  _118
REMARK   52  A    between atoms: _117  and  _120
REMARK   53  A    between atoms: _123  and  _125
REMARK   54  A    between atoms: _125  and  _126
REMARK   55  A    between atoms: _129  and  _131
REMARK   56  A    between atoms: _131  and  _132
REMARK   57  A    between atoms: _131  and  _134
REMARK   58  A    between atoms: _137  and  _139
REMARK   59  A    between atoms: _139  and  _140
REMARK   60  A    between atoms: _139  and  _142
REMARK   61  A    between atoms: _142  and  _143
REMARK   62  A    between atoms: _143  and  _144
REMARK   63  A    between atoms: _144  and  _145
REMARK   64  A    between atoms: _145  and  _146
REMARK   65  A    between atoms: _150  and  _152
REMARK   66  A    between atoms: _152  and  _153
REMARK   67  A    between atoms: _152  and  _155
REMARK   68  A    between atoms: _155  and  _156
REMARK   69  A    between atoms: _156  and  _157
REMARK   70  A    between atoms: _159  and  _161
REMARK   71  A    between atoms: _161  and  _162
REMARK   72  A    between atoms: _161  and  _164
REMARK   73  A    between atoms: _164  and  _165
REMARK   74  A    between atoms: _168  and  _170
REMARK   75  A    between atoms: _170  and  _171
REMARK   76  A    between atoms: _170  and  _173
REMARK   77  A    between atoms: _173  and  _174
REMARK   78  A    between atoms: _174  and  _175
REMARK   79  A    between atoms: _178  and  _180
REMARK   80  A    between atoms: _180  and  _181
REMARK   81  A    between atoms: _180  and  _183
REMARK   82  A    between atoms: _183  and  _184
REMARK   83  A    between atoms: _187  and  _189
REMARK   84  A    between atoms: _189  and  _190
REMARK   85  A    between atoms: _189  and  _192
REMARK   86  A    between atoms: _192  and  _193
REMARK   87  A    between atoms: _196  and  _198
REMARK   88  A    between atoms: _198  and  _199
REMARK   89  A    between atoms: _198  and  _201
REMARK   90  A    between atoms: _201  and  _202
REMARK   91  A    between atoms: _205  and  _207
REMARK   92  A    between atoms: _207  and  _208
REMARK   93  A    between atoms: _207  and  _210
REMARK   94  A    between atoms: _210  and  _211
REMARK   95  A    between atoms: _214  and  _216
REMARK   96  A    between atoms: _216  and  _217
REMARK   97  A    between atoms: _216  and  _219
REMARK   98  A    between atoms: _222  and  _224
REMARK   99  A    between atoms: _224  and  _225
REMARK  100  A    between atoms: _224  and  _227
REMARK  101  A    between atoms: _230  and  _232
REMARK  102  A    between atoms: _232  and  _233
REMARK  103  A    between atoms: _232  and  _235
REMARK  104  A    between atoms: _235  and  _236
REMARK  105  A    between atoms: _241  and  _243
REMARK  106  A    between atoms: _243  and  _244
REMARK  107  A    between atoms: _243  and  _246
REMARK  108  A    between atoms: _246  and  _247
REMARK  109  A    between atoms: _250  and  _252
REMARK  110  A    between atoms: _252  and  _253
REMARK  111  A    between atoms: _252  and  _255
REMARK  112  A    between atoms: _255  and  _256
REMARK  113  A    between atoms: _259  and  _261
REMARK  114  A    between atoms: _261  and  _262
REMARK  115  A    between atoms: _264  and  _266
REMARK  116  A    between atoms: _266  and  _267
REMARK  117  A    between atoms: _266  and  _269
REMARK  118  A    between atoms: _269  and  _270
REMARK  119  A    between atoms: _270  and  _271
REMARK  120  A    between atoms: _273  and  _275
REMARK  121  A    between atoms: _275  and  _276
REMARK  122  A    between atoms: _275  and  _278
REMARK  123  A    between atoms: _281  and  _283
REMARK  124  A    between atoms: _283  and  _284
REMARK  125  A    between atoms: _283  and  _286
REMARK  126  A    between atoms: _286  and  _287
REMARK  127  A    between atoms: _290  and  _292
REMARK  128  A    between atoms: _292  and  _293
REMARK  129  A    between atoms: _292  and  _295
REMARK  130  A    between atoms: _298  and  _300
REMARK  131  A    between atoms: _300  and  _301
REMARK  132  A    between atoms: _300  and  _303
REMARK  133  A    between atoms: _303  and  _304
REMARK  134  A    between atoms: _304  and  _305
REMARK  135  A    between atoms: _308  and  _310
REMARK  136  A    between atoms: _310  and  _311
REMARK  137  A    between atoms: _310  and  _313
REMARK  138  A    between atoms: _313  and  _314
REMARK  139  A    between atoms: _320  and  _322
REMARK  140  A    between atoms: _322  and  _323
REMARK  141  A    between atoms: _322  and  _325
REMARK  142  A    between atoms: _327  and  _329
REMARK  143  A    between atoms: _329  and  _330
REMARK  144  A    between atoms: _329  and  _332
REMARK  145  A    between atoms: _332  and  _333
REMARK  146  A    between atoms: _333  and  _334
REMARK  147  A    between atoms: _334  and  _335
REMARK  148  A    between atoms: _335  and  _336
REMARK  149  A    between atoms: _340  and  _342
REMARK  150  A    between atoms: _342  and  _343
REMARK  151  A    between atoms: _342  and  _345
REMARK  152  A    between atoms: _345  and  _346
REMARK  153  A    between atoms: _352  and  _354
REMARK  154  A    between atoms: _354  and  _355
REMARK  155  A    between atoms: _357  and  _359
REMARK  156  A    between atoms: _359  and  _360
REMARK  157  A    between atoms: _359  and  _362
REMARK  158  A    between atoms: _362  and  _363
REMARK  159  A    between atoms: _368  and  _370
REMARK  160  A    between atoms: _370  and  _371
REMARK  161  A    between atoms: _370  and  _373
REMARK  162  A    between atoms: _373  and  _374
REMARK  163  A    between atoms: _377  and  _379
REMARK  164  A    between atoms: _379  and  _380
REMARK  165  A    between atoms: _379  and  _382
REMARK  166  A    between atoms: _382  and  _383
REMARK  167  A    between atoms: _388  and  _390
REMARK  168  A    between atoms: _390  and  _391
REMARK  169  A    between atoms: _390  and  _393
REMARK  170  A    between atoms: _393  and  _394
REMARK  171  A    between atoms: _394  and  _395
REMARK  172  A    between atoms: _395  and  _396
REMARK  173  A    between atoms: _405  and  _407
REMARK  174  A    between atoms: _407  and  _408
REMARK  175  A    between atoms: _407  and  _410
REMARK  176  A    between atoms: _410  and  _411
REMARK  177  A    between atoms: _416  and  _418
REMARK  178  A    between atoms: _418  and  _419
REMARK  179  A    between atoms: _418  and  _421
REMARK  180  A    between atoms: _421  and  _422
REMARK  181  A    between atoms: _425  and  _427
REMARK  182  A    between atoms: _427  and  _428
REMARK  183  A    between atoms: _427  and  _430
REMARK  184  A    between atoms: _430  and  _431
REMARK  185  A    between atoms: _434  and  _436
REMARK  186  A    between atoms: _436  and  _437
REMARK  187  A    between atoms: _436  and  _439
REMARK  188  A    between atoms: _439  and  _440
REMARK  189  A    between atoms: _443  and  _445
REMARK  190  A    between atoms: _445  and  _446
REMARK  191  A    between atoms: _445  and  _448
REMARK  192  A    between atoms: _448  and  _449
REMARK  193  A    between atoms: _451  and  _453
REMARK  194  A    between atoms: _453  and  _454
REMARK  195  A    between atoms: _453  and  _456
REMARK  196  A    between atoms: _456  and  _457
REMARK  197  A    between atoms: _457  and  _458
REMARK  198  A    between atoms: _458  and  _459
REMARK  199  A    between atoms: _459  and  _460
REMARK  200  A    between atoms: _464  and  _466
REMARK  201  A    between atoms: _466  and  _467
REMARK  202  A    between atoms: _466  and  _469
REMARK  203  A    between atoms: _469  and  _470
REMARK  204  A    between atoms: _473  and  _475
REMARK  205  A    between atoms: _475  and  _476
REMARK  206  A    between atoms: _475  and  _478
REMARK  207  A    between atoms: _480  and  _482
REMARK  208  A    between atoms: _482  and  _483
REMARK  209  A    between atoms: _482  and  _485
REMARK  210  A    between atoms: _485  and  _486
REMARK  211  A    between atoms: _489  and  _491
REMARK  212  A    between atoms: _491  and  _492
REMARK  213  A    between atoms: _491  and  _494
REMARK  214  A    between atoms: _494  and  _495
REMARK  215  A    between atoms: _501  and  _503
REMARK  216  A    between atoms: _503  and  _504
REMARK  217  A    between atoms: _506  and  _508
REMARK  218  A    between atoms: _508  and  _509
REMARK  219  A    between atoms: _508  and  _511
REMARK  220  A    between atoms: _511  and  _512
REMARK  221  A    between atoms: _515  and  _517
REMARK  222  A    between atoms: _517  and  _518
REMARK  223  A    between atoms: _521  and  _523
REMARK  224  A    between atoms: _523  and  _524
REMARK  225  A    between atoms: _523  and  _526
REMARK  226  A    between atoms: _526  and  _527
REMARK  227  A    between atoms: _527  and  _528
REMARK  228  A    between atoms: _528  and  _529
REMARK                            x       y       z     vdW  Elec       q    Type
REMARK                         _______ _______ _______ _____ _____    ______ ____
ROOT
ATOM      1  O   HOH     1     -12.601   3.868 -10.374  0.00  0.00    +0.000 OA
ENDROOT
TORSDOF 0
REMARK  Name = ../refined-set-2016/4agc/4agc_pocket.pdb
REMARK  228 active torsions:
REMARK  status: ('A' for Active; 'I' for Inactive)
REMARK    1  A    between atoms: _1  and  _3
REMARK    2  A    between atoms: _3  and  _4
REMARK    3  A    between atoms: _3  and  _6
REMARK    4  A    between atoms: _6  and  _7
REMARK    5  A    between atoms: _10  and  _12
REMARK    6  A    between atoms: _12  and  _13
REMARK    7  A    between atoms: _12  and  _15
REMARK    8  A    between atoms: _15  and  _16
REMARK    9  A    between atoms: _18  and  _20
REMARK   10  A    between atoms: _20  and  _21
REMARK   11  A    between atoms: _20  and  _23
REMARK   12  A    between atoms: _23  and  _24
REMARK   13  A    between atoms: _27  and  _29
REMARK   14  A    between atoms: _29  and  _30
REMARK   15  A    between atoms: _29  and  _32
REMARK   16  A    between atoms: _32  and  _33
REMARK   17  A    between atoms: _33  and  _34
REMARK   18  A    between atoms: _34  and  _35
REMARK   19  A    between atoms: _35  and  _36
REMARK   20  A    between atoms: _41  and  _42
REMARK   21  A    between atoms: _47  and  _49
REMARK   22  A    between atoms: _49  and  _50
REMARK   23  A    between atoms: _49  and  _52
REMARK   24  A    between atoms: _52  and  _53
REMARK   25  A    between atoms: _56  and  _58
REMARK   26  A    between atoms: _58  and  _59
REMARK   27  A    between atoms: _61  and  _63
REMARK   28  A    between atoms: _63  and  _64
REMARK   29  A    between atoms: _63  and  _66
REMARK   30  A    between atoms: _66  and  _67
REMARK   31  A    between atoms: _67  and  _68
REMARK   32  A    between atoms: _73  and  _75
REMARK   33  A    between atoms: _75  and  _76
REMARK   34  A    between atoms: _75  and  _78
REMARK   35  A    between atoms: _81  and  _83
REMARK   36  A    between atoms: _83  and  _84
REMARK   37  A    between atoms: _83  and  _86
REMARK   38  A    between atoms: _86  and  _87
REMARK   39  A    between atoms: _90  and  _92
REMARK   40  A    between atoms: _92  and  _93
REMARK   41  A    between atoms: _92  and  _95
REMARK   42  A    between atoms: _95  and  _96
REMARK   43  A    between atoms: _96  and  _97
REMARK   44  A    between atoms: _100  and  _102
REMARK   45  A    between atoms: _102  and  _103
REMARK   46  A    between atoms: _106  and  _108
REMARK   47  A    between atoms: _108  and  _109
REMARK   48  A    between atoms: _108  and  _111
REMARK   49  A    between atoms: _111  and  _112
REMARK   50  A    between atoms: _115  and  _117
REMARK   51  A    between atoms: _117  and  _118
REMARK   52  A    between atoms: _117  and  _120
REMARK   53  A    between atoms: _123  and  _125
REMARK   54  A    between atoms: _125  and  _126
REMARK   55  A    between atoms: _129  and  _131
REMARK   56  A    between atoms: _131  and  _132
REMARK   57  A    between atoms: _131  and  _134
REMARK   58  A    between atoms: _137  and  _139
REMARK   59  A    between atoms: _139  and  _140
REMARK   60  A    between atoms: _139  and  _142
REMARK   61  A    between atoms: _142  and  _143
REMARK   62  A    between atoms: _143  and  _144
REMARK   63  A    between atoms: _144  and  _145
REMARK   64  A    between atoms: _145  and  _146
REMARK   65  A    between atoms: _150  and  _152
REMARK   66  A    between atoms: _152  and  _153
REMARK   67  A    between atoms: _152  and  _155
REMARK   68  A    between atoms: _155  and  _156
REMARK   69  A    between atoms: _156  and  _157
REMARK   70  A    between atoms: _159  and  _161
REMARK   71  A    between atoms: _161  and  _162
REMARK   72  A    between atoms: _161  and  _164
REMARK   73  A    between atoms: _164  and  _165
REMARK   74  A    between atoms: _168  and  _170
REMARK   75  A    between atoms: _170  and  _171
REMARK   76  A    between atoms: _170  and  _173
REMARK   77  A    between atoms: _173  and  _174
REMARK   78  A    between atoms: _174  and  _175
REMARK   79  A    between atoms: _178  and  _180
REMARK   80  A    between atoms: _180  and  _181
REMARK   81  A    between atoms: _180  and  _183
REMARK   82  A    between atoms: _183  and  _184
REMARK   83  A    between atoms: _187  and  _189
REMARK   84  A    between atoms: _189  and  _190
REMARK   85  A    between atoms: _189  and  _192
REMARK   86  A    between atoms: _192  and  _193
REMARK   87  A    between atoms: _196  and  _198
REMARK   88  A    between atoms: _198  and  _199
REMARK   89  A    between atoms: _198  and  _201
REMARK   90  A    between atoms: _201  and  _202
REMARK   91  A    between atoms: _205  and  _207
REMARK   92  A    between atoms: _207  and  _208
REMARK   93  A    between atoms: _207  and  _210
REMARK   94  A    between atoms: _210  and  _211
REMARK   95  A    between atoms: _214  and  _216
REMARK   96  A    between atoms: _216  and  _217
REMARK   97  A    between atoms: _216  and  _219
REMARK   98  A    between atoms: _222  and  _224
REMARK   99  A    between atoms: _224  and  _225
REMARK  100  A    between atoms: _224  and  _227
REMARK  101  A    between atoms: _230  and  _232
REMARK  102  A    between atoms: _232  and  _233
REMARK  103  A    between atoms: _232  and  _235
REMARK  104  A    between atoms: _235  and  _236
REMARK  105  A    between atoms: _241  and  _243
REMARK  106  A    between atoms: _243  and  _244
REMARK  107  A    between atoms: _243  and  _246
REMARK  108  A    between atoms: _246  and  _247
REMARK  109  A    between atoms: _250  and  _252
REMARK  110  A    between atoms: _252  and  _253
REMARK  111  A    between atoms: _252  and  _255
REMARK  112  A    between atoms: _255  and  _256
REMARK  113  A    between atoms: _259  and  _261
REMARK  114  A    between atoms: _261  and  _262
REMARK  115  A    between atoms: _264  and  _266
REMARK  116  A    between atoms: _266  and  _267
REMARK  117  A    between atoms: _266  and  _269
REMARK  118  A    between atoms: _269  and  _270
REMARK  119  A    between atoms: _270  and  _271
REMARK  120  A    between atoms: _273  and  _275
REMARK  121  A    between atoms: _275  and  _276
REMARK  122  A    between atoms: _275  and  _278
REMARK  123  A    between atoms: _281  and  _283
REMARK  124  A    between atoms: _283  and  _284
REMARK  125  A    between atoms: _283  and  _286
REMARK  126  A    between atoms: _286  and  _287
REMARK  127  A    between atoms: _290  and  _292
REMARK  128  A    between atoms: _292  and  _293
REMARK  129  A    between atoms: _292  and  _295
REMARK  130  A    between atoms: _298  and  _300
REMARK  131  A    between atoms: _300  and  _301
REMARK  132  A    between atoms: _300  and  _303
REMARK  133  A    between atoms: _303  and  _304
REMARK  134  A    between atoms: _304  and  _305
REMARK  135  A    between atoms: _308  and  _310
REMARK  136  A    between atoms: _310  and  _311
REMARK  137  A    between atoms: _310  and  _313
REMARK  138  A    between atoms: _313  and  _314
REMARK  139  A    between atoms: _320  and  _322
REMARK  140  A    between atoms: _322  and  _323
REMARK  141  A    between atoms: _322  and  _325
REMARK  142  A    between atoms: _327  and  _329
REMARK  143  A    between atoms: _329  and  _330
REMARK  144  A    between atoms: _329  and  _332
REMARK  145  A    between atoms: _332  and  _333
REMARK  146  A    between atoms: _333  and  _334
REMARK  147  A    between atoms: _334  and  _335
REMARK  148  A    between atoms: _335  and  _336
REMARK  149  A    between atoms: _340  and  _342
REMARK  150  A    between atoms: _342  and  _343
REMARK  151  A    between atoms: _342  and  _345
REMARK  152  A    between atoms: _345  and  _346
REMARK  153  A    between atoms: _352  and  _354
REMARK  154  A    between atoms: _354  and  _355
REMARK  155  A    between atoms: _357  and  _359
REMARK  156  A    between atoms: _359  and  _360
REMARK  157  A    between atoms: _359  and  _362
REMARK  158  A    between atoms: _362  and  _363
REMARK  159  A    between atoms: _368  and  _370
REMARK  160  A    between atoms: _370  and  _371
REMARK  161  A    between atoms: _370  and  _373
REMARK  162  A    between atoms: _373  and  _374
REMARK  163  A    between atoms: _377  and  _379
REMARK  164  A    between atoms: _379  and  _380
REMARK  165  A    between atoms: _379  and  _382
REMARK  166  A    between atoms: _382  and  _383
REMARK  167  A    between atoms: _388  and  _390
REMARK  168  A    between atoms: _390  and  _391
REMARK  169  A    between atoms: _390  and  _393
REMARK  170  A    between atoms: _393  and  _394
REMARK  171  A    between atoms: _394  and  _395
REMARK  172  A    between atoms: _395  and  _396
REMARK  173  A    between atoms: _405  and  _407
REMARK  174  A    between atoms: _407  and  _408
REMARK  175  A    between atoms: _407  and  _410
REMARK  176  A    between atoms: _410  and  _411
REMARK  177  A    between atoms: _416  and  _418
REMARK  178  A    between atoms: _418  and  _419
REMARK  179  A    between atoms: _418  and  _421
REMARK  180  A    between atoms: _421  and  _422
REMARK  181  A    between atoms: _425  and  _427
REMARK  182  A    between atoms: _427  and  _428
REMARK  183  A    between atoms: _427  and  _430
REMARK  184  A    between atoms: _430  and  _431
REMARK  185  A    between atoms: _434  and  _436
REMARK  186  A    between atoms: _436  and  _437
REMARK  187  A    between atoms: _436  and  _439
REMARK  188  A    between atoms: _439  and  _440
REMARK  189  A    between atoms: _443  and  _445
REMARK  190  A    between atoms: _445  and  _446
REMARK  191  A    between atoms: _445  and  _448
REMARK  192  A    between atoms: _448  and  _449
REMARK  193  A    between atoms: _451  and  _453
REMARK  194  A    between atoms: _453  and  _454
REMARK  195  A    between atoms: _453  and  _456
REMARK  196  A    between atoms: _456  and  _457
REMARK  197  A    between atoms: _457  and  _458
REMARK  198  A    between atoms: _458  and  _459
REMARK  199  A    between atoms: _459  and  _460
REMARK  200  A    between atoms: _464  and  _466
REMARK  201  A    between atoms: _466  and  _467
REMARK  202  A    between atoms: _466  and  _469
REMARK  203  A    between atoms: _469  and  _470
REMARK  204  A    between atoms: _473  and  _475
REMARK  205  A    between atoms: _475  and  _476
REMARK  206  A    between atoms: _475  and  _478
REMARK  207  A    between atoms: _480  and  _482
REMARK  208  A    between atoms: _482  and  _483
REMARK  209  A    between atoms: _482  and  _485
REMARK  210  A    between atoms: _485  and  _486
REMARK  211  A    between atoms: _489  and  _491
REMARK  212  A    between atoms: _491  and  _492
REMARK  213  A    between atoms: _491  and  _494
REMARK  214  A    between atoms: _494  and  _495
REMARK  215  A    between atoms: _501  and  _503
REMARK  216  A    between atoms: _503  and  _504
REMARK  217  A    between atoms: _506  and  _508
REMARK  218  A    between atoms: _508  and  _509
REMARK  219  A    between atoms: _508  and  _511
REMARK  220  A    between atoms: _511  and  _512
REMARK  221  A    between atoms: _515  and  _517
REMARK  222  A    between atoms: _517  and  _518
REMARK  223  A    between atoms: _521  and  _523
REMARK  224  A    between atoms: _523  and  _524
REMARK  225  A    between atoms: _523  and  _526
REMARK  226  A    between atoms: _526  and  _527
REMARK  227  A    between atoms: _527  and  _528
REMARK  228  A    between atoms: _528  and  _529
REMARK                            x       y       z     vdW  Elec       q    Type
REMARK                         _______ _______ _______ _____ _____    ______ ____
ROOT
ATOM      1  O   HOH     1     -11.459   7.411 -12.160  0.00  0.00    +0.000 OA
ENDROOT
TORSDOF 0
REMARK  Name = ../refined-set-2016/4agc/4agc_pocket.pdb
REMARK  228 active torsions:
REMARK  status: ('A' for Active; 'I' for Inactive)
REMARK    1  A    between atoms: _1  and  _3
REMARK    2  A    between atoms: _3  and  _4
REMARK    3  A    between atoms: _3  and  _6
REMARK    4  A    between atoms: _6  and  _7
REMARK    5  A    between atoms: _10  and  _12
REMARK    6  A    between atoms: _12  and  _13
REMARK    7  A    between atoms: _12  and  _15
REMARK    8  A    between atoms: _15  and  _16
REMARK    9  A    between atoms: _18  and  _20
REMARK   10  A    between atoms: _20  and  _21
REMARK   11  A    between atoms: _20  and  _23
REMARK   12  A    between atoms: _23  and  _24
REMARK   13  A    between atoms: _27  and  _29
REMARK   14  A    between atoms: _29  and  _30
REMARK   15  A    between atoms: _29  and  _32
REMARK   16  A    between atoms: _32  and  _33
REMARK   17  A    between atoms: _33  and  _34
REMARK   18  A    between atoms: _34  and  _35
REMARK   19  A    between atoms: _35  and  _36
REMARK   20  A    between atoms: _41  and  _42
REMARK   21  A    between atoms: _47  and  _49
REMARK   22  A    between atoms: _49  and  _50
REMARK   23  A    between atoms: _49  and  _52
REMARK   24  A    between atoms: _52  and  _53
REMARK   25  A    between atoms: _56  and  _58
REMARK   26  A    between atoms: _58  and  _59
REMARK   27  A    between atoms: _61  and  _63
REMARK   28  A    between atoms: _63  and  _64
REMARK   29  A    between atoms: _63  and  _66
REMARK   30  A    between atoms: _66  and  _67
REMARK   31  A    between atoms: _67  and  _68
REMARK   32  A    between atoms: _73  and  _75
REMARK   33  A    between atoms: _75  and  _76
REMARK   34  A    between atoms: _75  and  _78
REMARK   35  A    between atoms: _81  and  _83
REMARK   36  A    between atoms: _83  and  _84
REMARK   37  A    between atoms: _83  and  _86
REMARK   38  A    between atoms: _86  and  _87
REMARK   39  A    between atoms: _90  and  _92
REMARK   40  A    between atoms: _92  and  _93
REMARK   41  A    between atoms: _92  and  _95
REMARK   42  A    between atoms: _95  and  _96
REMARK   43  A    between atoms: _96  and  _97
REMARK   44  A    between atoms: _100  and  _102
REMARK   45  A    between atoms: _102  and  _103
REMARK   46  A    between atoms: _106  and  _108
REMARK   47  A    between atoms: _108  and  _109
REMARK   48  A    between atoms: _108  and  _111
REMARK   49  A    between atoms: _111  and  _112
REMARK   50  A    between atoms: _115  and  _117
REMARK   51  A    between atoms: _117  and  _118
REMARK   52  A    between atoms: _117  and  _120
REMARK   53  A    between atoms: _123  and  _125
REMARK   54  A    between atoms: _125  and  _126
REMARK   55  A    between atoms: _129  and  _131
REMARK   56  A    between atoms: _131  and  _132
REMARK   57  A    between atoms: _131  and  _134
REMARK   58  A    between atoms: _137  and  _139
REMARK   59  A    between atoms: _139  and  _140
REMARK   60  A    between atoms: _139  and  _142
REMARK   61  A    between atoms: _142  and  _143
REMARK   62  A    between atoms: _143  and  _144
REMARK   63  A    between atoms: _144  and  _145
REMARK   64  A    between atoms: _145  and  _146
REMARK   65  A    between atoms: _150  and  _152
REMARK   66  A    between atoms: _152  and  _153
REMARK   67  A    between atoms: _152  and  _155
REMARK   68  A    between atoms: _155  and  _156
REMARK   69  A    between atoms: _156  and  _157
REMARK   70  A    between atoms: _159  and  _161
REMARK   71  A    between atoms: _161  and  _162
REMARK   72  A    between atoms: _161  and  _164
REMARK   73  A    between atoms: _164  and  _165
REMARK   74  A    between atoms: _168  and  _170
REMARK   75  A    between atoms: _170  and  _171
REMARK   76  A    between atoms: _170  and  _173
REMARK   77  A    between atoms: _173  and  _174
REMARK   78  A    between atoms: _174  and  _175
REMARK   79  A    between atoms: _178  and  _180
REMARK   80  A    between atoms: _180  and  _181
REMARK   81  A    between atoms: _180  and  _183
REMARK   82  A    between atoms: _183  and  _184
REMARK   83  A    between atoms: _187  and  _189
REMARK   84  A    between atoms: _189  and  _190
REMARK   85  A    between atoms: _189  and  _192
REMARK   86  A    between atoms: _192  and  _193
REMARK   87  A    between atoms: _196  and  _198
REMARK   88  A    between atoms: _198  and  _199
REMARK   89  A    between atoms: _198  and  _201
REMARK   90  A    between atoms: _201  and  _202
REMARK   91  A    between atoms: _205  and  _207
REMARK   92  A    between atoms: _207  and  _208
REMARK   93  A    between atoms: _207  and  _210
REMARK   94  A    between atoms: _210  and  _211
REMARK   95  A    between atoms: _214  and  _216
REMARK   96  A    between atoms: _216  and  _217
REMARK   97  A    between atoms: _216  and  _219
REMARK   98  A    between atoms: _222  and  _224
REMARK   99  A    between atoms: _224  and  _225
REMARK  100  A    between atoms: _224  and  _227
REMARK  101  A    between atoms: _230  and  _232
REMARK  102  A    between atoms: _232  and  _233
REMARK  103  A    between atoms: _232  and  _235
REMARK  104  A    between atoms: _235  and  _236
REMARK  105  A    between atoms: _241  and  _243
REMARK  106  A    between atoms: _243  and  _244
REMARK  107  A    between atoms: _243  and  _246
REMARK  108  A    between atoms: _246  and  _247
REMARK  109  A    between atoms: _250  and  _252
REMARK  110  A    between atoms: _252  and  _253
REMARK  111  A    between atoms: _252  and  _255
REMARK  112  A    between atoms: _255  and  _256
REMARK  113  A    between atoms: _259  and  _261
REMARK  114  A    between atoms: _261  and  _262
REMARK  115  A    between atoms: _264  and  _266
REMARK  116  A    between atoms: _266  and  _267
REMARK  117  A    between atoms: _266  and  _269
REMARK  118  A    between atoms: _269  and  _270
REMARK  119  A    between atoms: _270  and  _271
REMARK  120  A    between atoms: _273  and  _275
REMARK  121  A    between atoms: _275  and  _276
REMARK  122  A    between atoms: _275  and  _278
REMARK  123  A    between atoms: _281  and  _283
REMARK  124  A    between atoms: _283  and  _284
REMARK  125  A    between atoms: _283  and  _286
REMARK  126  A    between atoms: _286  and  _287
REMARK  127  A    between atoms: _290  and  _292
REMARK  128  A    between atoms: _292  and  _293
REMARK  129  A    between atoms: _292  and  _295
REMARK  130  A    between atoms: _298  and  _300
REMARK  131  A    between atoms: _300  and  _301
REMARK  132  A    between atoms: _300  and  _303
REMARK  133  A    between atoms: _303  and  _304
REMARK  134  A    between atoms: _304  and  _305
REMARK  135  A    between atoms: _308  and  _310
REMARK  136  A    between atoms: _310  and  _311
REMARK  137  A    between atoms: _310  and  _313
REMARK  138  A    between atoms: _313  and  _314
REMARK  139  A    between atoms: _320  and  _322
REMARK  140  A    between atoms: _322  and  _323
REMARK  141  A    between atoms: _322  and  _325
REMARK  142  A    between atoms: _327  and  _329
REMARK  143  A    between atoms: _329  and  _330
REMARK  144  A    between atoms: _329  and  _332
REMARK  145  A    between atoms: _332  and  _333
REMARK  146  A    between atoms: _333  and  _334
REMARK  147  A    between atoms: _334  and  _335
REMARK  148  A    between atoms: _335  and  _336
REMARK  149  A    between atoms: _340  and  _342
REMARK  150  A    between atoms: _342  and  _343
REMARK  151  A    between atoms: _342  and  _345
REMARK  152  A    between atoms: _345  and  _346
REMARK  153  A    between atoms: _352  and  _354
REMARK  154  A    between atoms: _354  and  _355
REMARK  155  A    between atoms: _357  and  _359
REMARK  156  A    between atoms: _359  and  _360
REMARK  157  A    between atoms: _359  and  _362
REMARK  158  A    between atoms: _362  and  _363
REMARK  159  A    between atoms: _368  and  _370
REMARK  160  A    between atoms: _370  and  _371
REMARK  161  A    between atoms: _370  and  _373
REMARK  162  A    between atoms: _373  and  _374
REMARK  163  A    between atoms: _377  and  _379
REMARK  164  A    between atoms: _379  and  _380
REMARK  165  A    between atoms: _379  and  _382
REMARK  166  A    between atoms: _382  and  _383
REMARK  167  A    between atoms: _388  and  _390
REMARK  168  A    between atoms: _390  and  _391
REMARK  169  A    between atoms: _390  and  _393
REMARK  170  A    between atoms: _393  and  _394
REMARK  171  A    between atoms: _394  and  _395
REMARK  172  A    between atoms: _395  and  _396
REMARK  173  A    between atoms: _405  and  _407
REMARK  174  A    between atoms: _407  and  _408
REMARK  175  A    between atoms: _407  and  _410
REMARK  176  A    between atoms: _410  and  _411
REMARK  177  A    between atoms: _416  and  _418
REMARK  178  A    between atoms: _418  and  _419
REMARK  179  A    between atoms: _418  and  _421
REMARK  180  A    between atoms: _421  and  _422
REMARK  181  A    between atoms: _425  and  _427
REMARK  182  A    between atoms: _427  and  _428
REMARK  183  A    between atoms: _427  and  _430
REMARK  184  A    between atoms: _430  and  _431
REMARK  185  A    between atoms: _434  and  _436
REMARK  186  A    between atoms: _436  and  _437
REMARK  187  A    between atoms: _436  and  _439
REMARK  188  A    between atoms: _439  and  _440
REMARK  189  A    between atoms: _443  and  _445
REMARK  190  A    between atoms: _445  and  _446
REMARK  191  A    between atoms: _445  and  _448
REMARK  192  A    between atoms: _448  and  _449
REMARK  193  A    between atoms: _451  and  _453
REMARK  194  A    between atoms: _453  and  _454
REMARK  195  A    between atoms: _453  and  _456
REMARK  196  A    between atoms: _456  and  _457
REMARK  197  A    between atoms: _457  and  _458
REMARK  198  A    between atoms: _458  and  _459
REMARK  199  A    between atoms: _459  and  _460
REMARK  200  A    between atoms: _464  and  _466
REMARK  201  A    between atoms: _466  and  _467
REMARK  202  A    between atoms: _466  and  _469
REMARK  203  A    between atoms: _469  and  _470
REMARK  204  A    between atoms: _473  and  _475
REMARK  205  A    between atoms: _475  and  _476
REMARK  206  A    between atoms: _475  and  _478
REMARK  207  A    between atoms: _480  and  _482
REMARK  208  A    between atoms: _482  and  _483
REMARK  209  A    between atoms: _482  and  _485
REMARK  210  A    between atoms: _485  and  _486
REMARK  211  A    between atoms: _489  and  _491
REMARK  212  A    between atoms: _491  and  _492
REMARK  213  A    between atoms: _491  and  _494
REMARK  214  A    between atoms: _494  and  _495
REMARK  215  A    between atoms: _501  and  _503
REMARK  216  A    between atoms: _503  and  _504
REMARK  217  A    between atoms: _506  and  _508
REMARK  218  A    between atoms: _508  and  _509
REMARK  219  A    between atoms: _508  and  _511
REMARK  220  A    between atoms: _511  and  _512
REMARK  221  A    between atoms: _515  and  _517
REMARK  222  A    between atoms: _517  and  _518
REMARK  223  A    between atoms: _521  and  _523
REMARK  224  A    between atoms: _523  and  _524
REMARK  225  A    between atoms: _523  and  _526
REMARK  226  A    between atoms: _526  and  _527
REMARK  227  A    between atoms: _527  and  _528
REMARK  228  A    between atoms: _528  and  _529
REMARK                            x       y       z     vdW  Elec       q    Type
REMARK                         _______ _______ _______ _____ _____    ______ ____
ROOT
ATOM      1  O   HOH     1     -14.902   0.793 -11.871  0.00  0.00    +0.000 OA
ENDROOT
TORSDOF 0
REMARK  Name = ../refined-set-2016/4agc/4agc_pocket.pdb
REMARK  228 active torsions:
REMARK  status: ('A' for Active; 'I' for Inactive)
REMARK    1  A    between atoms: _1  and  _3
REMARK    2  A    between atoms: _3  and  _4
REMARK    3  A    between atoms: _3  and  _6
REMARK    4  A    between atoms: _6  and  _7
REMARK    5  A    between atoms: _10  and  _12
REMARK    6  A    between atoms: _12  and  _13
REMARK    7  A    between atoms: _12  and  _15
REMARK    8  A    between atoms: _15  and  _16
REMARK    9  A    between atoms: _18  and  _20
REMARK   10  A    between atoms: _20  and  _21
REMARK   11  A    between atoms: _20  and  _23
REMARK   12  A    between atoms: _23  and  _24
REMARK   13  A    between atoms: _27  and  _29
REMARK   14  A    between atoms: _29  and  _30
REMARK   15  A    between atoms: _29  and  _32
REMARK   16  A    between atoms: _32  and  _33
REMARK   17  A    between atoms: _33  and  _34
REMARK   18  A    between atoms: _34  and  _35
REMARK   19  A    between atoms: _35  and  _36
REMARK   20  A    between atoms: _41  and  _42
REMARK   21  A    between atoms: _47  and  _49
REMARK   22  A    between atoms: _49  and  _50
REMARK   23  A    between atoms: _49  and  _52
REMARK   24  A    between atoms: _52  and  _53
REMARK   25  A    between atoms: _56  and  _58
REMARK   26  A    between atoms: _58  and  _59
REMARK   27  A    between atoms: _61  and  _63
REMARK   28  A    between atoms: _63  and  _64
REMARK   29  A    between atoms: _63  and  _66
REMARK   30  A    between atoms: _66  and  _67
REMARK   31  A    between atoms: _67  and  _68
REMARK   32  A    between atoms: _73  and  _75
REMARK   33  A    between atoms: _75  and  _76
REMARK   34  A    between atoms: _75  and  _78
REMARK   35  A    between atoms: _81  and  _83
REMARK   36  A    between atoms: _83  and  _84
REMARK   37  A    between atoms: _83  and  _86
REMARK   38  A    between atoms: _86  and  _87
REMARK   39  A    between atoms: _90  and  _92
REMARK   40  A    between atoms: _92  and  _93
REMARK   41  A    between atoms: _92  and  _95
REMARK   42  A    between atoms: _95  and  _96
REMARK   43  A    between atoms: _96  and  _97
REMARK   44  A    between atoms: _100  and  _102
REMARK   45  A    between atoms: _102  and  _103
REMARK   46  A    between atoms: _106  and  _108
REMARK   47  A    between atoms: _108  and  _109
REMARK   48  A    between atoms: _108  and  _111
REMARK   49  A    between atoms: _111  and  _112
REMARK   50  A    between atoms: _115  and  _117
REMARK   51  A    between atoms: _117  and  _118
REMARK   52  A    between atoms: _117  and  _120
REMARK   53  A    between atoms: _123  and  _125
REMARK   54  A    between atoms: _125  and  _126
REMARK   55  A    between atoms: _129  and  _131
REMARK   56  A    between atoms: _131  and  _132
REMARK   57  A    between atoms: _131  and  _134
REMARK   58  A    between atoms: _137  and  _139
REMARK   59  A    between atoms: _139  and  _140
REMARK   60  A    between atoms: _139  and  _142
REMARK   61  A    between atoms: _142  and  _143
REMARK   62  A    between atoms: _143  and  _144
REMARK   63  A    between atoms: _144  and  _145
REMARK   64  A    between atoms: _145  and  _146
REMARK   65  A    between atoms: _150  and  _152
REMARK   66  A    between atoms: _152  and  _153
REMARK   67  A    between atoms: _152  and  _155
REMARK   68  A    between atoms: _155  and  _156
REMARK   69  A    between atoms: _156  and  _157
REMARK   70  A    between atoms: _159  and  _161
REMARK   71  A    between atoms: _161  and  _162
REMARK   72  A    between atoms: _161  and  _164
REMARK   73  A    between atoms: _164  and  _165
REMARK   74  A    between atoms: _168  and  _170
REMARK   75  A    between atoms: _170  and  _171
REMARK   76  A    between atoms: _170  and  _173
REMARK   77  A    between atoms: _173  and  _174
REMARK   78  A    between atoms: _174  and  _175
REMARK   79  A    between atoms: _178  and  _180
REMARK   80  A    between atoms: _180  and  _181
REMARK   81  A    between atoms: _180  and  _183
REMARK   82  A    between atoms: _183  and  _184
REMARK   83  A    between atoms: _187  and  _189
REMARK   84  A    between atoms: _189  and  _190
REMARK   85  A    between atoms: _189  and  _192
REMARK   86  A    between atoms: _192  and  _193
REMARK   87  A    between atoms: _196  and  _198
REMARK   88  A    between atoms: _198  and  _199
REMARK   89  A    between atoms: _198  and  _201
REMARK   90  A    between atoms: _201  and  _202
REMARK   91  A    between atoms: _205  and  _207
REMARK   92  A    between atoms: _207  and  _208
REMARK   93  A    between atoms: _207  and  _210
REMARK   94  A    between atoms: _210  and  _211
REMARK   95  A    between atoms: _214  and  _216
REMARK   96  A    between atoms: _216  and  _217
REMARK   97  A    between atoms: _216  and  _219
REMARK   98  A    between atoms: _222  and  _224
REMARK   99  A    between atoms: _224  and  _225
REMARK  100  A    between atoms: _224  and  _227
REMARK  101  A    between atoms: _230  and  _232
REMARK  102  A    between atoms: _232  and  _233
REMARK  103  A    between atoms: _232  and  _235
REMARK  104  A    between atoms: _235  and  _236
REMARK  105  A    between atoms: _241  and  _243
REMARK  106  A    between atoms: _243  and  _244
REMARK  107  A    between atoms: _243  and  _246
REMARK  108  A    between atoms: _246  and  _247
REMARK  109  A    between atoms: _250  and  _252
REMARK  110  A    between atoms: _252  and  _253
REMARK  111  A    between atoms: _252  and  _255
REMARK  112  A    between atoms: _255  and  _256
REMARK  113  A    between atoms: _259  and  _261
REMARK  114  A    between atoms: _261  and  _262
REMARK  115  A    between atoms: _264  and  _266
REMARK  116  A    between atoms: _266  and  _267
REMARK  117  A    between atoms: _266  and  _269
REMARK  118  A    between atoms: _269  and  _270
REMARK  119  A    between atoms: _270  and  _271
REMARK  120  A    between atoms: _273  and  _275
REMARK  121  A    between atoms: _275  and  _276
REMARK  122  A    between atoms: _275  and  _278
REMARK  123  A    between atoms: _281  and  _283
REMARK  124  A    between atoms: _283  and  _284
REMARK  125  A    between atoms: _283  and  _286
REMARK  126  A    between atoms: _286  and  _287
REMARK  127  A    between atoms: _290  and  _292
REMARK  128  A    between atoms: _292  and  _293
REMARK  129  A    between atoms: _292  and  _295
REMARK  130  A    between atoms: _298  and  _300
REMARK  131  A    between atoms: _300  and  _301
REMARK  132  A    between atoms: _300  and  _303
REMARK  133  A    between atoms: _303  and  _304
REMARK  134  A    between atoms: _304  and  _305
REMARK  135  A    between atoms: _308  and  _310
REMARK  136  A    between atoms: _310  and  _311
REMARK  137  A    between atoms: _310  and  _313
REMARK  138  A    between atoms: _313  and  _314
REMARK  139  A    between atoms: _320  and  _322
REMARK  140  A    between atoms: _322  and  _323
REMARK  141  A    between atoms: _322  and  _325
REMARK  142  A    between atoms: _327  and  _329
REMARK  143  A    between atoms: _329  and  _330
REMARK  144  A    between atoms: _329  and  _332
REMARK  145  A    between atoms: _332  and  _333
REMARK  146  A    between atoms: _333  and  _334
REMARK  147  A    between atoms: _334  and  _335
REMARK  148  A    between atoms: _335  and  _336
REMARK  149  A    between atoms: _340  and  _342
REMARK  150  A    between atoms: _342  and  _343
REMARK  151  A    between atoms: _342  and  _345
REMARK  152  A    between atoms: _345  and  _346
REMARK  153  A    between atoms: _352  and  _354
REMARK  154  A    between atoms: _354  and  _355
REMARK  155  A    between atoms: _357  and  _359
REMARK  156  A    between atoms: _359  and  _360
REMARK  157  A    between atoms: _359  and  _362
REMARK  158  A    between atoms: _362  and  _363
REMARK  159  A    between atoms: _368  and  _370
REMARK  160  A    between atoms: _370  and  _371
REMARK  161  A    between atoms: _370  and  _373
REMARK  162  A    between atoms: _373  and  _374
REMARK  163  A    between atoms: _377  and  _379
REMARK  164  A    between atoms: _379  and  _380
REMARK  165  A    between atoms: _379  and  _382
REMARK  166  A    between atoms: _382  and  _383
REMARK  167  A    between atoms: _388  and  _390
REMARK  168  A    between atoms: _390  and  _391
REMARK  169  A    between atoms: _390  and  _393
REMARK  170  A    between atoms: _393  and  _394
REMARK  171  A    between atoms: _394  and  _395
REMARK  172  A    between atoms: _395  and  _396
REMARK  173  A    between atoms: _405  and  _407
REMARK  174  A    between atoms: _407  and  _408
REMARK  175  A    between atoms: _407  and  _410
REMARK  176  A    between atoms: _410  and  _411
REMARK  177  A    between atoms: _416  and  _418
REMARK  178  A    between atoms: _418  and  _419
REMARK  179  A    between atoms: _418  and  _421
REMARK  180  A    between atoms: _421  and  _422
REMARK  181  A    between atoms: _425  and  _427
REMARK  182  A    between atoms: _427  and  _428
REMARK  183  A    between atoms: _427  and  _430
REMARK  184  A    between atoms: _430  and  _431
REMARK  185  A    between atoms: _434  and  _436
REMARK  186  A    between atoms: _436  and  _437
REMARK  187  A    between atoms: _436  and  _439
REMARK  188  A    between atoms: _439  and  _440
REMARK  189  A    between atoms: _443  and  _445
REMARK  190  A    between atoms: _445  and  _446
REMARK  191  A    between atoms: _445  and  _448
REMARK  192  A    between atoms: _448  and  _449
REMARK  193  A    between atoms: _451  and  _453
REMARK  194  A    between atoms: _453  and  _454
REMARK  195  A    between atoms: _453  and  _456
REMARK  196  A    between atoms: _456  and  _457
REMARK  197  A    between atoms: _457  and  _458
REMARK  198  A    between atoms: _458  and  _459
REMARK  199  A    between atoms: _459  and  _460
REMARK  200  A    between atoms: _464  and  _466
REMARK  201  A    between atoms: _466  and  _467
REMARK  202  A    between atoms: _466  and  _469
REMARK  203  A    between atoms: _469  and  _470
REMARK  204  A    between atoms: _473  and  _475
REMARK  205  A    between atoms: _475  and  _476
REMARK  206  A    between atoms: _475  and  _478
REMARK  207  A    between atoms: _480  and  _482
REMARK  208  A    between atoms: _482  and  _483
REMARK  209  A    between atoms: _482  and  _485
REMARK  210  A    between atoms: _485  and  _486
REMARK  211  A    between atoms: _489  and  _491
REMARK  212  A    between atoms: _491  and  _492
REMARK  213  A    between atoms: _491  and  _494
REMARK  214  A    between atoms: _494  and  _495
REMARK  215  A    between atoms: _501  and  _503
REMARK  216  A    between atoms: _503  and  _504
REMARK  217  A    between atoms: _506  and  _508
REMARK  218  A    between atoms: _508  and  _509
REMARK  219  A    between atoms: _508  and  _511
REMARK  220  A    between atoms: _511  and  _512
REMARK  221  A    between atoms: _515  and  _517
REMARK  222  A    between atoms: _517  and  _518
REMARK  223  A    between atoms: _521  and  _523
REMARK  224  A    between atoms: _523  and  _524
REMARK  225  A    between atoms: _523  and  _526
REMARK  226  A    between atoms: _526  and  _527
REMARK  227  A    between atoms: _527  and  _528
REMARK  228  A    between atoms: _528  and  _529
REMARK                            x       y       z     vdW  Elec       q    Type
REMARK                         _______ _______ _______ _____ _____    ______ ____
ROOT
ATOM      1  O   HOH     1     -12.643   1.849 -12.319  0.00  0.00    +0.000 OA
ENDROOT
TORSDOF 0
REMARK  Name = ../refined-set-2016/4agc/4agc_pocket.pdb
REMARK  228 active torsions:
REMARK  status: ('A' for Active; 'I' for Inactive)
REMARK    1  A    between atoms: _1  and  _3
REMARK    2  A    between atoms: _3  and  _4
REMARK    3  A    between atoms: _3  and  _6
REMARK    4  A    between atoms: _6  and  _7
REMARK    5  A    between atoms: _10  and  _12
REMARK    6  A    between atoms: _12  and  _13
REMARK    7  A    between atoms: _12  and  _15
REMARK    8  A    between atoms: _15  and  _16
REMARK    9  A    between atoms: _18  and  _20
REMARK   10  A    between atoms: _20  and  _21
REMARK   11  A    between atoms: _20  and  _23
REMARK   12  A    between atoms: _23  and  _24
REMARK   13  A    between atoms: _27  and  _29
REMARK   14  A    between atoms: _29  and  _30
REMARK   15  A    between atoms: _29  and  _32
REMARK   16  A    between atoms: _32  and  _33
REMARK   17  A    between atoms: _33  and  _34
REMARK   18  A    between atoms: _34  and  _35
REMARK   19  A    between atoms: _35  and  _36
REMARK   20  A    between atoms: _41  and  _42
REMARK   21  A    between atoms: _47  and  _49
REMARK   22  A    between atoms: _49  and  _50
REMARK   23  A    between atoms: _49  and  _52
REMARK   24  A    between atoms: _52  and  _53
REMARK   25  A    between atoms: _56  and  _58
REMARK   26  A    between atoms: _58  and  _59
REMARK   27  A    between atoms: _61  and  _63
REMARK   28  A    between atoms: _63  and  _64
REMARK   29  A    between atoms: _63  and  _66
REMARK   30  A    between atoms: _66  and  _67
REMARK   31  A    between atoms: _67  and  _68
REMARK   32  A    between atoms: _73  and  _75
REMARK   33  A    between atoms: _75  and  _76
REMARK   34  A    between atoms: _75  and  _78
REMARK   35  A    between atoms: _81  and  _83
REMARK   36  A    between atoms: _83  and  _84
REMARK   37  A    between atoms: _83  and  _86
REMARK   38  A    between atoms: _86  and  _87
REMARK   39  A    between atoms: _90  and  _92
REMARK   40  A    between atoms: _92  and  _93
REMARK   41  A    between atoms: _92  and  _95
REMARK   42  A    between atoms: _95  and  _96
REMARK   43  A    between atoms: _96  and  _97
REMARK   44  A    between atoms: _100  and  _102
REMARK   45  A    between atoms: _102  and  _103
REMARK   46  A    between atoms: _106  and  _108
REMARK   47  A    between atoms: _108  and  _109
REMARK   48  A    between atoms: _108  and  _111
REMARK   49  A    between atoms: _111  and  _112
REMARK   50  A    between atoms: _115  and  _117
REMARK   51  A    between atoms: _117  and  _118
REMARK   52  A    between atoms: _117  and  _120
REMARK   53  A    between atoms: _123  and  _125
REMARK   54  A    between atoms: _125  and  _126
REMARK   55  A    between atoms: _129  and  _131
REMARK   56  A    between atoms: _131  and  _132
REMARK   57  A    between atoms: _131  and  _134
REMARK   58  A    between atoms: _137  and  _139
REMARK   59  A    between atoms: _139  and  _140
REMARK   60  A    between atoms: _139  and  _142
REMARK   61  A    between atoms: _142  and  _143
REMARK   62  A    between atoms: _143  and  _144
REMARK   63  A    between atoms: _144  and  _145
REMARK   64  A    between atoms: _145  and  _146
REMARK   65  A    between atoms: _150  and  _152
REMARK   66  A    between atoms: _152  and  _153
REMARK   67  A    between atoms: _152  and  _155
REMARK   68  A    between atoms: _155  and  _156
REMARK   69  A    between atoms: _156  and  _157
REMARK   70  A    between atoms: _159  and  _161
REMARK   71  A    between atoms: _161  and  _162
REMARK   72  A    between atoms: _161  and  _164
REMARK   73  A    between atoms: _164  and  _165
REMARK   74  A    between atoms: _168  and  _170
REMARK   75  A    between atoms: _170  and  _171
REMARK   76  A    between atoms: _170  and  _173
REMARK   77  A    between atoms: _173  and  _174
REMARK   78  A    between atoms: _174  and  _175
REMARK   79  A    between atoms: _178  and  _180
REMARK   80  A    between atoms: _180  and  _181
REMARK   81  A    between atoms: _180  and  _183
REMARK   82  A    between atoms: _183  and  _184
REMARK   83  A    between atoms: _187  and  _189
REMARK   84  A    between atoms: _189  and  _190
REMARK   85  A    between atoms: _189  and  _192
REMARK   86  A    between atoms: _192  and  _193
REMARK   87  A    between atoms: _196  and  _198
REMARK   88  A    between atoms: _198  and  _199
REMARK   89  A    between atoms: _198  and  _201
REMARK   90  A    between atoms: _201  and  _202
REMARK   91  A    between atoms: _205  and  _207
REMARK   92  A    between atoms: _207  and  _208
REMARK   93  A    between atoms: _207  and  _210
REMARK   94  A    between atoms: _210  and  _211
REMARK   95  A    between atoms: _214  and  _216
REMARK   96  A    between atoms: _216  and  _217
REMARK   97  A    between atoms: _216  and  _219
REMARK   98  A    between atoms: _222  and  _224
REMARK   99  A    between atoms: _224  and  _225
REMARK  100  A    between atoms: _224  and  _227
REMARK  101  A    between atoms: _230  and  _232
REMARK  102  A    between atoms: _232  and  _233
REMARK  103  A    between atoms: _232  and  _235
REMARK  104  A    between atoms: _235  and  _236
REMARK  105  A    between atoms: _241  and  _243
REMARK  106  A    between atoms: _243  and  _244
REMARK  107  A    between atoms: _243  and  _246
REMARK  108  A    between atoms: _246  and  _247
REMARK  109  A    between atoms: _250  and  _252
REMARK  110  A    between atoms: _252  and  _253
REMARK  111  A    between atoms: _252  and  _255
REMARK  112  A    between atoms: _255  and  _256
REMARK  113  A    between atoms: _259  and  _261
REMARK  114  A    between atoms: _261  and  _262
REMARK  115  A    between atoms: _264  and  _266
REMARK  116  A    between atoms: _266  and  _267
REMARK  117  A    between atoms: _266  and  _269
REMARK  118  A    between atoms: _269  and  _270
REMARK  119  A    between atoms: _270  and  _271
REMARK  120  A    between atoms: _273  and  _275
REMARK  121  A    between atoms: _275  and  _276
REMARK  122  A    between atoms: _275  and  _278
REMARK  123  A    between atoms: _281  and  _283
REMARK  124  A    between atoms: _283  and  _284
REMARK  125  A    between atoms: _283  and  _286
REMARK  126  A    between atoms: _286  and  _287
REMARK  127  A    between atoms: _290  and  _292
REMARK  128  A    between atoms: _292  and  _293
REMARK  129  A    between atoms: _292  and  _295
REMARK  130  A    between atoms: _298  and  _300
REMARK  131  A    between atoms: _300  and  _301
REMARK  132  A    between atoms: _300  and  _303
REMARK  133  A    between atoms: _303  and  _304
REMARK  134  A    between atoms: _304  and  _305
REMARK  135  A    between atoms: _308  and  _310
REMARK  136  A    between atoms: _310  and  _311
REMARK  137  A    between atoms: _310  and  _313
REMARK  138  A    between atoms: _313  and  _314
REMARK  139  A    between atoms: _320  and  _322
REMARK  140  A    between atoms: _322  and  _323
REMARK  141  A    between atoms: _322  and  _325
REMARK  142  A    between atoms: _327  and  _329
REMARK  143  A    between atoms: _329  and  _330
REMARK  144  A    between atoms: _329  and  _332
REMARK  145  A    between atoms: _332  and  _333
REMARK  146  A    between atoms: _333  and  _334
REMARK  147  A    between atoms: _334  and  _335
REMARK  148  A    between atoms: _335  and  _336
REMARK  149  A    between atoms: _340  and  _342
REMARK  150  A    between atoms: _342  and  _343
REMARK  151  A    between atoms: _342  and  _345
REMARK  152  A    between atoms: _345  and  _346
REMARK  153  A    between atoms: _352  and  _354
REMARK  154  A    between atoms: _354  and  _355
REMARK  155  A    between atoms: _357  and  _359
REMARK  156  A    between atoms: _359  and  _360
REMARK  157  A    between atoms: _359  and  _362
REMARK  158  A    between atoms: _362  and  _363
REMARK  159  A    between atoms: _368  and  _370
REMARK  160  A    between atoms: _370  and  _371
REMARK  161  A    between atoms: _370  and  _373
REMARK  162  A    between atoms: _373  and  _374
REMARK  163  A    between atoms: _377  and  _379
REMARK  164  A    between atoms: _379  and  _380
REMARK  165  A    between atoms: _379  and  _382
REMARK  166  A    between atoms: _382  and  _383
REMARK  167  A    between atoms: _388  and  _390
REMARK  168  A    between atoms: _390  and  _391
REMARK  169  A    between atoms: _390  and  _393
REMARK  170  A    between atoms: _393  and  _394
REMARK  171  A    between atoms: _394  and  _395
REMARK  172  A    between atoms: _395  and  _396
REMARK  173  A    between atoms: _405  and  _407
REMARK  174  A    between atoms: _407  and  _408
REMARK  175  A    between atoms: _407  and  _410
REMARK  176  A    between atoms: _410  and  _411
REMARK  177  A    between atoms: _416  and  _418
REMARK  178  A    between atoms: _418  and  _419
REMARK  179  A    between atoms: _418  and  _421
REMARK  180  A    between atoms: _421  and  _422
REMARK  181  A    between atoms: _425  and  _427
REMARK  182  A    between atoms: _427  and  _428
REMARK  183  A    between atoms: _427  and  _430
REMARK  184  A    between atoms: _430  and  _431
REMARK  185  A    between atoms: _434  and  _436
REMARK  186  A    between atoms: _436  and  _437
REMARK  187  A    between atoms: _436  and  _439
REMARK  188  A    between atoms: _439  and  _440
REMARK  189  A    between atoms: _443  and  _445
REMARK  190  A    between atoms: _445  and  _446
REMARK  191  A    between atoms: _445  and  _448
REMARK  192  A    between atoms: _448  and  _449
REMARK  193  A    between atoms: _451  and  _453
REMARK  194  A    between atoms: _453  and  _454
REMARK  195  A    between atoms: _453  and  _456
REMARK  196  A    between atoms: _456  and  _457
REMARK  197  A    between atoms: _457  and  _458
REMARK  198  A    between atoms: _458  and  _459
REMARK  199  A    between atoms: _459  and  _460
REMARK  200  A    between atoms: _464  and  _466
REMARK  201  A    between atoms: _466  and  _467
REMARK  202  A    between atoms: _466  and  _469
REMARK  203  A    between atoms: _469  and  _470
REMARK  204  A    between atoms: _473  and  _475
REMARK  205  A    between atoms: _475  and  _476
REMARK  206  A    between atoms: _475  and  _478
REMARK  207  A    between atoms: _480  and  _482
REMARK  208  A    between atoms: _482  and  _483
REMARK  209  A    between atoms: _482  and  _485
REMARK  210  A    between atoms: _485  and  _486
REMARK  211  A    between atoms: _489  and  _491
REMARK  212  A    between atoms: _491  and  _492
REMARK  213  A    between atoms: _491  and  _494
REMARK  214  A    between atoms: _494  and  _495
REMARK  215  A    between atoms: _501  and  _503
REMARK  216  A    between atoms: _503  and  _504
REMARK  217  A    between atoms: _506  and  _508
REMARK  218  A    between atoms: _508  and  _509
REMARK  219  A    between atoms: _508  and  _511
REMARK  220  A    between atoms: _511  and  _512
REMARK  221  A    between atoms: _515  and  _517
REMARK  222  A    between atoms: _517  and  _518
REMARK  223  A    between atoms: _521  and  _523
REMARK  224  A    between atoms: _523  and  _524
REMARK  225  A    between atoms: _523  and  _526
REMARK  226  A    between atoms: _526  and  _527
REMARK  227  A    between atoms: _527  and  _528
REMARK  228  A    between atoms: _528  and  _529
REMARK                            x       y       z     vdW  Elec       q    Type
REMARK                         _______ _______ _______ _____ _____    ______ ____
ROOT
ATOM      1  O   HOH     1     -11.720  -1.147 -12.385  0.00  0.00    +0.000 OA
ENDROOT
TORSDOF 0
REMARK  Name = ../refined-set-2016/4agc/4agc_pocket.pdb
REMARK  228 active torsions:
REMARK  status: ('A' for Active; 'I' for Inactive)
REMARK    1  A    between atoms: _1  and  _3
REMARK    2  A    between atoms: _3  and  _4
REMARK    3  A    between atoms: _3  and  _6
REMARK    4  A    between atoms: _6  and  _7
REMARK    5  A    between atoms: _10  and  _12
REMARK    6  A    between atoms: _12  and  _13
REMARK    7  A    between atoms: _12  and  _15
REMARK    8  A    between atoms: _15  and  _16
REMARK    9  A    between atoms: _18  and  _20
REMARK   10  A    between atoms: _20  and  _21
REMARK   11  A    between atoms: _20  and  _23
REMARK   12  A    between atoms: _23  and  _24
REMARK   13  A    between atoms: _27  and  _29
REMARK   14  A    between atoms: _29  and  _30
REMARK   15  A    between atoms: _29  and  _32
REMARK   16  A    between atoms: _32  and  _33
REMARK   17  A    between atoms: _33  and  _34
REMARK   18  A    between atoms: _34  and  _35
REMARK   19  A    between atoms: _35  and  _36
REMARK   20  A    between atoms: _41  and  _42
REMARK   21  A    between atoms: _47  and  _49
REMARK   22  A    between atoms: _49  and  _50
REMARK   23  A    between atoms: _49  and  _52
REMARK   24  A    between atoms: _52  and  _53
REMARK   25  A    between atoms: _56  and  _58
REMARK   26  A    between atoms: _58  and  _59
REMARK   27  A    between atoms: _61  and  _63
REMARK   28  A    between atoms: _63  and  _64
REMARK   29  A    between atoms: _63  and  _66
REMARK   30  A    between atoms: _66  and  _67
REMARK   31  A    between atoms: _67  and  _68
REMARK   32  A    between atoms: _73  and  _75
REMARK   33  A    between atoms: _75  and  _76
REMARK   34  A    between atoms: _75  and  _78
REMARK   35  A    between atoms: _81  and  _83
REMARK   36  A    between atoms: _83  and  _84
REMARK   37  A    between atoms: _83  and  _86
REMARK   38  A    between atoms: _86  and  _87
REMARK   39  A    between atoms: _90  and  _92
REMARK   40  A    between atoms: _92  and  _93
REMARK   41  A    between atoms: _92  and  _95
REMARK   42  A    between atoms: _95  and  _96
REMARK   43  A    between atoms: _96  and  _97
REMARK   44  A    between atoms: _100  and  _102
REMARK   45  A    between atoms: _102  and  _103
REMARK   46  A    between atoms: _106  and  _108
REMARK   47  A    between atoms: _108  and  _109
REMARK   48  A    between atoms: _108  and  _111
REMARK   49  A    between atoms: _111  and  _112
REMARK   50  A    between atoms: _115  and  _117
REMARK   51  A    between atoms: _117  and  _118
REMARK   52  A    between atoms: _117  and  _120
REMARK   53  A    between atoms: _123  and  _125
REMARK   54  A    between atoms: _125  and  _126
REMARK   55  A    between atoms: _129  and  _131
REMARK   56  A    between atoms: _131  and  _132
REMARK   57  A    between atoms: _131  and  _134
REMARK   58  A    between atoms: _137  and  _139
REMARK   59  A    between atoms: _139  and  _140
REMARK   60  A    between atoms: _139  and  _142
REMARK   61  A    between atoms: _142  and  _143
REMARK   62  A    between atoms: _143  and  _144
REMARK   63  A    between atoms: _144  and  _145
REMARK   64  A    between atoms: _145  and  _146
REMARK   65  A    between atoms: _150  and  _152
REMARK   66  A    between atoms: _152  and  _153
REMARK   67  A    between atoms: _152  and  _155
REMARK   68  A    between atoms: _155  and  _156
REMARK   69  A    between atoms: _156  and  _157
REMARK   70  A    between atoms: _159  and  _161
REMARK   71  A    between atoms: _161  and  _162
REMARK   72  A    between atoms: _161  and  _164
REMARK   73  A    between atoms: _164  and  _165
REMARK   74  A    between atoms: _168  and  _170
REMARK   75  A    between atoms: _170  and  _171
REMARK   76  A    between atoms: _170  and  _173
REMARK   77  A    between atoms: _173  and  _174
REMARK   78  A    between atoms: _174  and  _175
REMARK   79  A    between atoms: _178  and  _180
REMARK   80  A    between atoms: _180  and  _181
REMARK   81  A    between atoms: _180  and  _183
REMARK   82  A    between atoms: _183  and  _184
REMARK   83  A    between atoms: _187  and  _189
REMARK   84  A    between atoms: _189  and  _190
REMARK   85  A    between atoms: _189  and  _192
REMARK   86  A    between atoms: _192  and  _193
REMARK   87  A    between atoms: _196  and  _198
REMARK   88  A    between atoms: _198  and  _199
REMARK   89  A    between atoms: _198  and  _201
REMARK   90  A    between atoms: _201  and  _202
REMARK   91  A    between atoms: _205  and  _207
REMARK   92  A    between atoms: _207  and  _208
REMARK   93  A    between atoms: _207  and  _210
REMARK   94  A    between atoms: _210  and  _211
REMARK   95  A    between atoms: _214  and  _216
REMARK   96  A    between atoms: _216  and  _217
REMARK   97  A    between atoms: _216  and  _219
REMARK   98  A    between atoms: _222  and  _224
REMARK   99  A    between atoms: _224  and  _225
REMARK  100  A    between atoms: _224  and  _227
REMARK  101  A    between atoms: _230  and  _232
REMARK  102  A    between atoms: _232  and  _233
REMARK  103  A    between atoms: _232  and  _235
REMARK  104  A    between atoms: _235  and  _236
REMARK  105  A    between atoms: _241  and  _243
REMARK  106  A    between atoms: _243  and  _244
REMARK  107  A    between atoms: _243  and  _246
REMARK  108  A    between atoms: _246  and  _247
REMARK  109  A    between atoms: _250  and  _252
REMARK  110  A    between atoms: _252  and  _253
REMARK  111  A    between atoms: _252  and  _255
REMARK  112  A    between atoms: _255  and  _256
REMARK  113  A    between atoms: _259  and  _261
REMARK  114  A    between atoms: _261  and  _262
REMARK  115  A    between atoms: _264  and  _266
REMARK  116  A    between atoms: _266  and  _267
REMARK  117  A    between atoms: _266  and  _269
REMARK  118  A    between atoms: _269  and  _270
REMARK  119  A    between atoms: _270  and  _271
REMARK  120  A    between atoms: _273  and  _275
REMARK  121  A    between atoms: _275  and  _276
REMARK  122  A    between atoms: _275  and  _278
REMARK  123  A    between atoms: _281  and  _283
REMARK  124  A    between atoms: _283  and  _284
REMARK  125  A    between atoms: _283  and  _286
REMARK  126  A    between atoms: _286  and  _287
REMARK  127  A    between atoms: _290  and  _292
REMARK  128  A    between atoms: _292  and  _293
REMARK  129  A    between atoms: _292  and  _295
REMARK  130  A    between atoms: _298  and  _300
REMARK  131  A    between atoms: _300  and  _301
REMARK  132  A    between atoms: _300  and  _303
REMARK  133  A    between atoms: _303  and  _304
REMARK  134  A    between atoms: _304  and  _305
REMARK  135  A    between atoms: _308  and  _310
REMARK  136  A    between atoms: _310  and  _311
REMARK  137  A    between atoms: _310  and  _313
REMARK  138  A    between atoms: _313  and  _314
REMARK  139  A    between atoms: _320  and  _322
REMARK  140  A    between atoms: _322  and  _323
REMARK  141  A    between atoms: _322  and  _325
REMARK  142  A    between atoms: _327  and  _329
REMARK  143  A    between atoms: _329  and  _330
REMARK  144  A    between atoms: _329  and  _332
REMARK  145  A    between atoms: _332  and  _333
REMARK  146  A    between atoms: _333  and  _334
REMARK  147  A    between atoms: _334  and  _335
REMARK  148  A    between atoms: _335  and  _336
REMARK  149  A    between atoms: _340  and  _342
REMARK  150  A    between atoms: _342  and  _343
REMARK  151  A    between atoms: _342  and  _345
REMARK  152  A    between atoms: _345  and  _346
REMARK  153  A    between atoms: _352  and  _354
REMARK  154  A    between atoms: _354  and  _355
REMARK  155  A    between atoms: _357  and  _359
REMARK  156  A    between atoms: _359  and  _360
REMARK  157  A    between atoms: _359  and  _362
REMARK  158  A    between atoms: _362  and  _363
REMARK  159  A    between atoms: _368  and  _370
REMARK  160  A    between atoms: _370  and  _371
REMARK  161  A    between atoms: _370  and  _373
REMARK  162  A    between atoms: _373  and  _374
REMARK  163  A    between atoms: _377  and  _379
REMARK  164  A    between atoms: _379  and  _380
REMARK  165  A    between atoms: _379  and  _382
REMARK  166  A    between atoms: _382  and  _383
REMARK  167  A    between atoms: _388  and  _390
REMARK  168  A    between atoms: _390  and  _391
REMARK  169  A    between atoms: _390  and  _393
REMARK  170  A    between atoms: _393  and  _394
REMARK  171  A    between atoms: _394  and  _395
REMARK  172  A    between atoms: _395  and  _396
REMARK  173  A    between atoms: _405  and  _407
REMARK  174  A    between atoms: _407  and  _408
REMARK  175  A    between atoms: _407  and  _410
REMARK  176  A    between atoms: _410  and  _411
REMARK  177  A    between atoms: _416  and  _418
REMARK  178  A    between atoms: _418  and  _419
REMARK  179  A    between atoms: _418  and  _421
REMARK  180  A    between atoms: _421  and  _422
REMARK  181  A    between atoms: _425  and  _427
REMARK  182  A    between atoms: _427  and  _428
REMARK  183  A    between atoms: _427  and  _430
REMARK  184  A    between atoms: _430  and  _431
REMARK  185  A    between atoms: _434  and  _436
REMARK  186  A    between atoms: _436  and  _437
REMARK  187  A    between atoms: _436  and  _439
REMARK  188  A    between atoms: _439  and  _440
REMARK  189  A    between atoms: _443  and  _445
REMARK  190  A    between atoms: _445  and  _446
REMARK  191  A    between atoms: _445  and  _448
REMARK  192  A    between atoms: _448  and  _449
REMARK  193  A    between atoms: _451  and  _453
REMARK  194  A    between atoms: _453  and  _454
REMARK  195  A    between atoms: _453  and  _456
REMARK  196  A    between atoms: _456  and  _457
REMARK  197  A    between atoms: _457  and  _458
REMARK  198  A    between atoms: _458  and  _459
REMARK  199  A    between atoms: _459  and  _460
REMARK  200  A    between atoms: _464  and  _466
REMARK  201  A    between atoms: _466  and  _467
REMARK  202  A    between atoms: _466  and  _469
REMARK  203  A    between atoms: _469  and  _470
REMARK  204  A    between atoms: _473  and  _475
REMARK  205  A    between atoms: _475  and  _476
REMARK  206  A    between atoms: _475  and  _478
REMARK  207  A    between atoms: _480  and  _482
REMARK  208  A    between atoms: _482  and  _483
REMARK  209  A    between atoms: _482  and  _485
REMARK  210  A    between atoms: _485  and  _486
REMARK  211  A    between atoms: _489  and  _491
REMARK  212  A    between atoms: _491  and  _492
REMARK  213  A    between atoms: _491  and  _494
REMARK  214  A    between atoms: _494  and  _495
REMARK  215  A    between atoms: _501  and  _503
REMARK  216  A    between atoms: _503  and  _504
REMARK  217  A    between atoms: _506  and  _508
REMARK  218  A    between atoms: _508  and  _509
REMARK  219  A    between atoms: _508  and  _511
REMARK  220  A    between atoms: _511  and  _512
REMARK  221  A    between atoms: _515  and  _517
REMARK  222  A    between atoms: _517  and  _518
REMARK  223  A    between atoms: _521  and  _523
REMARK  224  A    between atoms: _523  and  _524
REMARK  225  A    between atoms: _523  and  _526
REMARK  226  A    between atoms: _526  and  _527
REMARK  227  A    between atoms: _527  and  _528
REMARK  228  A    between atoms: _528  and  _529
REMARK                            x       y       z     vdW  Elec       q    Type
REMARK                         _______ _______ _______ _____ _____    ______ ____
ROOT
ATOM      1  O   HOH     1     -15.605  -3.002  -8.885  0.00  0.00    +0.000 OA
ENDROOT
TORSDOF 0
REMARK  Name = ../refined-set-2016/4agc/4agc_pocket.pdb
REMARK  228 active torsions:
REMARK  status: ('A' for Active; 'I' for Inactive)
REMARK    1  A    between atoms: _1  and  _3
REMARK    2  A    between atoms: _3  and  _4
REMARK    3  A    between atoms: _3  and  _6
REMARK    4  A    between atoms: _6  and  _7
REMARK    5  A    between atoms: _10  and  _12
REMARK    6  A    between atoms: _12  and  _13
REMARK    7  A    between atoms: _12  and  _15
REMARK    8  A    between atoms: _15  and  _16
REMARK    9  A    between atoms: _18  and  _20
REMARK   10  A    between atoms: _20  and  _21
REMARK   11  A    between atoms: _20  and  _23
REMARK   12  A    between atoms: _23  and  _24
REMARK   13  A    between atoms: _27  and  _29
REMARK   14  A    between atoms: _29  and  _30
REMARK   15  A    between atoms: _29  and  _32
REMARK   16  A    between atoms: _32  and  _33
REMARK   17  A    between atoms: _33  and  _34
REMARK   18  A    between atoms: _34  and  _35
REMARK   19  A    between atoms: _35  and  _36
REMARK   20  A    between atoms: _41  and  _42
REMARK   21  A    between atoms: _47  and  _49
REMARK   22  A    between atoms: _49  and  _50
REMARK   23  A    between atoms: _49  and  _52
REMARK   24  A    between atoms: _52  and  _53
REMARK   25  A    between atoms: _56  and  _58
REMARK   26  A    between atoms: _58  and  _59
REMARK   27  A    between atoms: _61  and  _63
REMARK   28  A    between atoms: _63  and  _64
REMARK   29  A    between atoms: _63  and  _66
REMARK   30  A    between atoms: _66  and  _67
REMARK   31  A    between atoms: _67  and  _68
REMARK   32  A    between atoms: _73  and  _75
REMARK   33  A    between atoms: _75  and  _76
REMARK   34  A    between atoms: _75  and  _78
REMARK   35  A    between atoms: _81  and  _83
REMARK   36  A    between atoms: _83  and  _84
REMARK   37  A    between atoms: _83  and  _86
REMARK   38  A    between atoms: _86  and  _87
REMARK   39  A    between atoms: _90  and  _92
REMARK   40  A    between atoms: _92  and  _93
REMARK   41  A    between atoms: _92  and  _95
REMARK   42  A    between atoms: _95  and  _96
REMARK   43  A    between atoms: _96  and  _97
REMARK   44  A    between atoms: _100  and  _102
REMARK   45  A    between atoms: _102  and  _103
REMARK   46  A    between atoms: _106  and  _108
REMARK   47  A    between atoms: _108  and  _109
REMARK   48  A    between atoms: _108  and  _111
REMARK   49  A    between atoms: _111  and  _112
REMARK   50  A    between atoms: _115  and  _117
REMARK   51  A    between atoms: _117  and  _118
REMARK   52  A    between atoms: _117  and  _120
REMARK   53  A    between atoms: _123  and  _125
REMARK   54  A    between atoms: _125  and  _126
REMARK   55  A    between atoms: _129  and  _131
REMARK   56  A    between atoms: _131  and  _132
REMARK   57  A    between atoms: _131  and  _134
REMARK   58  A    between atoms: _137  and  _139
REMARK   59  A    between atoms: _139  and  _140
REMARK   60  A    between atoms: _139  and  _142
REMARK   61  A    between atoms: _142  and  _143
REMARK   62  A    between atoms: _143  and  _144
REMARK   63  A    between atoms: _144  and  _145
REMARK   64  A    between atoms: _145  and  _146
REMARK   65  A    between atoms: _150  and  _152
REMARK   66  A    between atoms: _152  and  _153
REMARK   67  A    between atoms: _152  and  _155
REMARK   68  A    between atoms: _155  and  _156
REMARK   69  A    between atoms: _156  and  _157
REMARK   70  A    between atoms: _159  and  _161
REMARK   71  A    between atoms: _161  and  _162
REMARK   72  A    between atoms: _161  and  _164
REMARK   73  A    between atoms: _164  and  _165
REMARK   74  A    between atoms: _168  and  _170
REMARK   75  A    between atoms: _170  and  _171
REMARK   76  A    between atoms: _170  and  _173
REMARK   77  A    between atoms: _173  and  _174
REMARK   78  A    between atoms: _174  and  _175
REMARK   79  A    between atoms: _178  and  _180
REMARK   80  A    between atoms: _180  and  _181
REMARK   81  A    between atoms: _180  and  _183
REMARK   82  A    between atoms: _183  and  _184
REMARK   83  A    between atoms: _187  and  _189
REMARK   84  A    between atoms: _189  and  _190
REMARK   85  A    between atoms: _189  and  _192
REMARK   86  A    between atoms: _192  and  _193
REMARK   87  A    between atoms: _196  and  _198
REMARK   88  A    between atoms: _198  and  _199
REMARK   89  A    between atoms: _198  and  _201
REMARK   90  A    between atoms: _201  and  _202
REMARK   91  A    between atoms: _205  and  _207
REMARK   92  A    between atoms: _207  and  _208
REMARK   93  A    between atoms: _207  and  _210
REMARK   94  A    between atoms: _210  and  _211
REMARK   95  A    between atoms: _214  and  _216
REMARK   96  A    between atoms: _216  and  _217
REMARK   97  A    between atoms: _216  and  _219
REMARK   98  A    between atoms: _222  and  _224
REMARK   99  A    between atoms: _224  and  _225
REMARK  100  A    between atoms: _224  and  _227
REMARK  101  A    between atoms: _230  and  _232
REMARK  102  A    between atoms: _232  and  _233
REMARK  103  A    between atoms: _232  and  _235
REMARK  104  A    between atoms: _235  and  _236
REMARK  105  A    between atoms: _241  and  _243
REMARK  106  A    between atoms: _243  and  _244
REMARK  107  A    between atoms: _243  and  _246
REMARK  108  A    between atoms: _246  and  _247
REMARK  109  A    between atoms: _250  and  _252
REMARK  110  A    between atoms: _252  and  _253
REMARK  111  A    between atoms: _252  and  _255
REMARK  112  A    between atoms: _255  and  _256
REMARK  113  A    between atoms: _259  and  _261
REMARK  114  A    between atoms: _261  and  _262
REMARK  115  A    between atoms: _264  and  _266
REMARK  116  A    between atoms: _266  and  _267
REMARK  117  A    between atoms: _266  and  _269
REMARK  118  A    between atoms: _269  and  _270
REMARK  119  A    between atoms: _270  and  _271
REMARK  120  A    between atoms: _273  and  _275
REMARK  121  A    between atoms: _275  and  _276
REMARK  122  A    between atoms: _275  and  _278
REMARK  123  A    between atoms: _281  and  _283
REMARK  124  A    between atoms: _283  and  _284
REMARK  125  A    between atoms: _283  and  _286
REMARK  126  A    between atoms: _286  and  _287
REMARK  127  A    between atoms: _290  and  _292
REMARK  128  A    between atoms: _292  and  _293
REMARK  129  A    between atoms: _292  and  _295
REMARK  130  A    between atoms: _298  and  _300
REMARK  131  A    between atoms: _300  and  _301
REMARK  132  A    between atoms: _300  and  _303
REMARK  133  A    between atoms: _303  and  _304
REMARK  134  A    between atoms: _304  and  _305
REMARK  135  A    between atoms: _308  and  _310
REMARK  136  A    between atoms: _310  and  _311
REMARK  137  A    between atoms: _310  and  _313
REMARK  138  A    between atoms: _313  and  _314
REMARK  139  A    between atoms: _320  and  _322
REMARK  140  A    between atoms: _322  and  _323
REMARK  141  A    between atoms: _322  and  _325
REMARK  142  A    between atoms: _327  and  _329
REMARK  143  A    between atoms: _329  and  _330
REMARK  144  A    between atoms: _329  and  _332
REMARK  145  A    between atoms: _332  and  _333
REMARK  146  A    between atoms: _333  and  _334
REMARK  147  A    between atoms: _334  and  _335
REMARK  148  A    between atoms: _335  and  _336
REMARK  149  A    between atoms: _340  and  _342
REMARK  150  A    between atoms: _342  and  _343
REMARK  151  A    between atoms: _342  and  _345
REMARK  152  A    between atoms: _345  and  _346
REMARK  153  A    between atoms: _352  and  _354
REMARK  154  A    between atoms: _354  and  _355
REMARK  155  A    between atoms: _357  and  _359
REMARK  156  A    between atoms: _359  and  _360
REMARK  157  A    between atoms: _359  and  _362
REMARK  158  A    between atoms: _362  and  _363
REMARK  159  A    between atoms: _368  and  _370
REMARK  160  A    between atoms: _370  and  _371
REMARK  161  A    between atoms: _370  and  _373
REMARK  162  A    between atoms: _373  and  _374
REMARK  163  A    between atoms: _377  and  _379
REMARK  164  A    between atoms: _379  and  _380
REMARK  165  A    between atoms: _379  and  _382
REMARK  166  A    between atoms: _382  and  _383
REMARK  167  A    between atoms: _388  and  _390
REMARK  168  A    between atoms: _390  and  _391
REMARK  169  A    between atoms: _390  and  _393
REMARK  170  A    between atoms: _393  and  _394
REMARK  171  A    between atoms: _394  and  _395
REMARK  172  A    between atoms: _395  and  _396
REMARK  173  A    between atoms: _405  and  _407
REMARK  174  A    between atoms: _407  and  _408
REMARK  175  A    between atoms: _407  and  _410
REMARK  176  A    between atoms: _410  and  _411
REMARK  177  A    between atoms: _416  and  _418
REMARK  178  A    between atoms: _418  and  _419
REMARK  179  A    between atoms: _418  and  _421
REMARK  180  A    between atoms: _421  and  _422
REMARK  181  A    between atoms: _425  and  _427
REMARK  182  A    between atoms: _427  and  _428
REMARK  183  A    between atoms: _427  and  _430
REMARK  184  A    between atoms: _430  and  _431
REMARK  185  A    between atoms: _434  and  _436
REMARK  186  A    between atoms: _436  and  _437
REMARK  187  A    between atoms: _436  and  _439
REMARK  188  A    between atoms: _439  and  _440
REMARK  189  A    between atoms: _443  and  _445
REMARK  190  A    between atoms: _445  and  _446
REMARK  191  A    between atoms: _445  and  _448
REMARK  192  A    between atoms: _448  and  _449
REMARK  193  A    between atoms: _451  and  _453
REMARK  194  A    between atoms: _453  and  _454
REMARK  195  A    between atoms: _453  and  _456
REMARK  196  A    between atoms: _456  and  _457
REMARK  197  A    between atoms: _457  and  _458
REMARK  198  A    between atoms: _458  and  _459
REMARK  199  A    between atoms: _459  and  _460
REMARK  200  A    between atoms: _464  and  _466
REMARK  201  A    between atoms: _466  and  _467
REMARK  202  A    between atoms: _466  and  _469
REMARK  203  A    between atoms: _469  and  _470
REMARK  204  A    between atoms: _473  and  _475
REMARK  205  A    between atoms: _475  and  _476
REMARK  206  A    between atoms: _475  and  _478
REMARK  207  A    between atoms: _480  and  _482
REMARK  208  A    between atoms: _482  and  _483
REMARK  209  A    between atoms: _482  and  _485
REMARK  210  A    between atoms: _485  and  _486
REMARK  211  A    between atoms: _489  and  _491
REMARK  212  A    between atoms: _491  and  _492
REMARK  213  A    between atoms: _491  and  _494
REMARK  214  A    between atoms: _494  and  _495
REMARK  215  A    between atoms: _501  and  _503
REMARK  216  A    between atoms: _503  and  _504
REMARK  217  A    between atoms: _506  and  _508
REMARK  218  A    between atoms: _508  and  _509
REMARK  219  A    between atoms: _508  and  _511
REMARK  220  A    between atoms: _511  and  _512
REMARK  221  A    between atoms: _515  and  _517
REMARK  222  A    between atoms: _517  and  _518
REMARK  223  A    between atoms: _521  and  _523
REMARK  224  A    between atoms: _523  and  _524
REMARK  225  A    between atoms: _523  and  _526
REMARK  226  A    between atoms: _526  and  _527
REMARK  227  A    between atoms: _527  and  _528
REMARK  228  A    between atoms: _528  and  _529
REMARK                            x       y       z     vdW  Elec       q    Type
REMARK                         _______ _______ _______ _____ _____    ______ ____
ROOT
ATOM      1  O   HOH     1     -14.867  -4.621 -12.030  0.00  0.00    +0.000 OA
ENDROOT
TORSDOF 0
REMARK  Name = ../refined-set-2016/4agc/4agc_pocket.pdb
REMARK  228 active torsions:
REMARK  status: ('A' for Active; 'I' for Inactive)
REMARK    1  A    between atoms: _1  and  _3
REMARK    2  A    between atoms: _3  and  _4
REMARK    3  A    between atoms: _3  and  _6
REMARK    4  A    between atoms: _6  and  _7
REMARK    5  A    between atoms: _10  and  _12
REMARK    6  A    between atoms: _12  and  _13
REMARK    7  A    between atoms: _12  and  _15
REMARK    8  A    between atoms: _15  and  _16
REMARK    9  A    between atoms: _18  and  _20
REMARK   10  A    between atoms: _20  and  _21
REMARK   11  A    between atoms: _20  and  _23
REMARK   12  A    between atoms: _23  and  _24
REMARK   13  A    between atoms: _27  and  _29
REMARK   14  A    between atoms: _29  and  _30
REMARK   15  A    between atoms: _29  and  _32
REMARK   16  A    between atoms: _32  and  _33
REMARK   17  A    between atoms: _33  and  _34
REMARK   18  A    between atoms: _34  and  _35
REMARK   19  A    between atoms: _35  and  _36
REMARK   20  A    between atoms: _41  and  _42
REMARK   21  A    between atoms: _47  and  _49
REMARK   22  A    between atoms: _49  and  _50
REMARK   23  A    between atoms: _49  and  _52
REMARK   24  A    between atoms: _52  and  _53
REMARK   25  A    between atoms: _56  and  _58
REMARK   26  A    between atoms: _58  and  _59
REMARK   27  A    between atoms: _61  and  _63
REMARK   28  A    between atoms: _63  and  _64
REMARK   29  A    between atoms: _63  and  _66
REMARK   30  A    between atoms: _66  and  _67
REMARK   31  A    between atoms: _67  and  _68
REMARK   32  A    between atoms: _73  and  _75
REMARK   33  A    between atoms: _75  and  _76
REMARK   34  A    between atoms: _75  and  _78
REMARK   35  A    between atoms: _81  and  _83
REMARK   36  A    between atoms: _83  and  _84
REMARK   37  A    between atoms: _83  and  _86
REMARK   38  A    between atoms: _86  and  _87
REMARK   39  A    between atoms: _90  and  _92
REMARK   40  A    between atoms: _92  and  _93
REMARK   41  A    between atoms: _92  and  _95
REMARK   42  A    between atoms: _95  and  _96
REMARK   43  A    between atoms: _96  and  _97
REMARK   44  A    between atoms: _100  and  _102
REMARK   45  A    between atoms: _102  and  _103
REMARK   46  A    between atoms: _106  and  _108
REMARK   47  A    between atoms: _108  and  _109
REMARK   48  A    between atoms: _108  and  _111
REMARK   49  A    between atoms: _111  and  _112
REMARK   50  A    between atoms: _115  and  _117
REMARK   51  A    between atoms: _117  and  _118
REMARK   52  A    between atoms: _117  and  _120
REMARK   53  A    between atoms: _123  and  _125
REMARK   54  A    between atoms: _125  and  _126
REMARK   55  A    between atoms: _129  and  _131
REMARK   56  A    between atoms: _131  and  _132
REMARK   57  A    between atoms: _131  and  _134
REMARK   58  A    between atoms: _137  and  _139
REMARK   59  A    between atoms: _139  and  _140
REMARK   60  A    between atoms: _139  and  _142
REMARK   61  A    between atoms: _142  and  _143
REMARK   62  A    between atoms: _143  and  _144
REMARK   63  A    between atoms: _144  and  _145
REMARK   64  A    between atoms: _145  and  _146
REMARK   65  A    between atoms: _150  and  _152
REMARK   66  A    between atoms: _152  and  _153
REMARK   67  A    between atoms: _152  and  _155
REMARK   68  A    between atoms: _155  and  _156
REMARK   69  A    between atoms: _156  and  _157
REMARK   70  A    between atoms: _159  and  _161
REMARK   71  A    between atoms: _161  and  _162
REMARK   72  A    between atoms: _161  and  _164
REMARK   73  A    between atoms: _164  and  _165
REMARK   74  A    between atoms: _168  and  _170
REMARK   75  A    between atoms: _170  and  _171
REMARK   76  A    between atoms: _170  and  _173
REMARK   77  A    between atoms: _173  and  _174
REMARK   78  A    between atoms: _174  and  _175
REMARK   79  A    between atoms: _178  and  _180
REMARK   80  A    between atoms: _180  and  _181
REMARK   81  A    between atoms: _180  and  _183
REMARK   82  A    between atoms: _183  and  _184
REMARK   83  A    between atoms: _187  and  _189
REMARK   84  A    between atoms: _189  and  _190
REMARK   85  A    between atoms: _189  and  _192
REMARK   86  A    between atoms: _192  and  _193
REMARK   87  A    between atoms: _196  and  _198
REMARK   88  A    between atoms: _198  and  _199
REMARK   89  A    between atoms: _198  and  _201
REMARK   90  A    between atoms: _201  and  _202
REMARK   91  A    between atoms: _205  and  _207
REMARK   92  A    between atoms: _207  and  _208
REMARK   93  A    between atoms: _207  and  _210
REMARK   94  A    between atoms: _210  and  _211
REMARK   95  A    between atoms: _214  and  _216
REMARK   96  A    between atoms: _216  and  _217
REMARK   97  A    between atoms: _216  and  _219
REMARK   98  A    between atoms: _222  and  _224
REMARK   99  A    between atoms: _224  and  _225
REMARK  100  A    between atoms: _224  and  _227
REMARK  101  A    between atoms: _230  and  _232
REMARK  102  A    between atoms: _232  and  _233
REMARK  103  A    between atoms: _232  and  _235
REMARK  104  A    between atoms: _235  and  _236
REMARK  105  A    between atoms: _241  and  _243
REMARK  106  A    between atoms: _243  and  _244
REMARK  107  A    between atoms: _243  and  _246
REMARK  108  A    between atoms: _246  and  _247
REMARK  109  A    between atoms: _250  and  _252
REMARK  110  A    between atoms: _252  and  _253
REMARK  111  A    between atoms: _252  and  _255
REMARK  112  A    between atoms: _255  and  _256
REMARK  113  A    between atoms: _259  and  _261
REMARK  114  A    between atoms: _261  and  _262
REMARK  115  A    between atoms: _264  and  _266
REMARK  116  A    between atoms: _266  and  _267
REMARK  117  A    between atoms: _266  and  _269
REMARK  118  A    between atoms: _269  and  _270
REMARK  119  A    between atoms: _270  and  _271
REMARK  120  A    between atoms: _273  and  _275
REMARK  121  A    between atoms: _275  and  _276
REMARK  122  A    between atoms: _275  and  _278
REMARK  123  A    between atoms: _281  and  _283
REMARK  124  A    between atoms: _283  and  _284
REMARK  125  A    between atoms: _283  and  _286
REMARK  126  A    between atoms: _286  and  _287
REMARK  127  A    between atoms: _290  and  _292
REMARK  128  A    between atoms: _292  and  _293
REMARK  129  A    between atoms: _292  and  _295
REMARK  130  A    between atoms: _298  and  _300
REMARK  131  A    between atoms: _300  and  _301
REMARK  132  A    between atoms: _300  and  _303
REMARK  133  A    between atoms: _303  and  _304
REMARK  134  A    between atoms: _304  and  _305
REMARK  135  A    between atoms: _308  and  _310
REMARK  136  A    between atoms: _310  and  _311
REMARK  137  A    between atoms: _310  and  _313
REMARK  138  A    between atoms: _313  and  _314
REMARK  139  A    between atoms: _320  and  _322
REMARK  140  A    between atoms: _322  and  _323
REMARK  141  A    between atoms: _322  and  _325
REMARK  142  A    between atoms: _327  and  _329
REMARK  143  A    between atoms: _329  and  _330
REMARK  144  A    between atoms: _329  and  _332
REMARK  145  A    between atoms: _332  and  _333
REMARK  146  A    between atoms: _333  and  _334
REMARK  147  A    between atoms: _334  and  _335
REMARK  148  A    between atoms: _335  and  _336
REMARK  149  A    between atoms: _340  and  _342
REMARK  150  A    between atoms: _342  and  _343
REMARK  151  A    between atoms: _342  and  _345
REMARK  152  A    between atoms: _345  and  _346
REMARK  153  A    between atoms: _352  and  _354
REMARK  154  A    between atoms: _354  and  _355
REMARK  155  A    between atoms: _357  and  _359
REMARK  156  A    between atoms: _359  and  _360
REMARK  157  A    between atoms: _359  and  _362
REMARK  158  A    between atoms: _362  and  _363
REMARK  159  A    between atoms: _368  and  _370
REMARK  160  A    between atoms: _370  and  _371
REMARK  161  A    between atoms: _370  and  _373
REMARK  162  A    between atoms: _373  and  _374
REMARK  163  A    between atoms: _377  and  _379
REMARK  164  A    between atoms: _379  and  _380
REMARK  165  A    between atoms: _379  and  _382
REMARK  166  A    between atoms: _382  and  _383
REMARK  167  A    between atoms: _388  and  _390
REMARK  168  A    between atoms: _390  and  _391
REMARK  169  A    between atoms: _390  and  _393
REMARK  170  A    between atoms: _393  and  _394
REMARK  171  A    between atoms: _394  and  _395
REMARK  172  A    between atoms: _395  and  _396
REMARK  173  A    between atoms: _405  and  _407
REMARK  174  A    between atoms: _407  and  _408
REMARK  175  A    between atoms: _407  and  _410
REMARK  176  A    between atoms: _410  and  _411
REMARK  177  A    between atoms: _416  and  _418
REMARK  178  A    between atoms: _418  and  _419
REMARK  179  A    between atoms: _418  and  _421
REMARK  180  A    between atoms: _421  and  _422
REMARK  181  A    between atoms: _425  and  _427
REMARK  182  A    between atoms: _427  and  _428
REMARK  183  A    between atoms: _427  and  _430
REMARK  184  A    between atoms: _430  and  _431
REMARK  185  A    between atoms: _434  and  _436
REMARK  186  A    between atoms: _436  and  _437
REMARK  187  A    between atoms: _436  and  _439
REMARK  188  A    between atoms: _439  and  _440
REMARK  189  A    between atoms: _443  and  _445
REMARK  190  A    between atoms: _445  and  _446
REMARK  191  A    between atoms: _445  and  _448
REMARK  192  A    between atoms: _448  and  _449
REMARK  193  A    between atoms: _451  and  _453
REMARK  194  A    between atoms: _453  and  _454
REMARK  195  A    between atoms: _453  and  _456
REMARK  196  A    between atoms: _456  and  _457
REMARK  197  A    between atoms: _457  and  _458
REMARK  198  A    between atoms: _458  and  _459
REMARK  199  A    between atoms: _459  and  _460
REMARK  200  A    between atoms: _464  and  _466
REMARK  201  A    between atoms: _466  and  _467
REMARK  202  A    between atoms: _466  and  _469
REMARK  203  A    between atoms: _469  and  _470
REMARK  204  A    between atoms: _473  and  _475
REMARK  205  A    between atoms: _475  and  _476
REMARK  206  A    between atoms: _475  and  _478
REMARK  207  A    between atoms: _480  and  _482
REMARK  208  A    between atoms: _482  and  _483
REMARK  209  A    between atoms: _482  and  _485
REMARK  210  A    between atoms: _485  and  _486
REMARK  211  A    between atoms: _489  and  _491
REMARK  212  A    between atoms: _491  and  _492
REMARK  213  A    between atoms: _491  and  _494
REMARK  214  A    between atoms: _494  and  _495
REMARK  215  A    between atoms: _501  and  _503
REMARK  216  A    between atoms: _503  and  _504
REMARK  217  A    between atoms: _506  and  _508
REMARK  218  A    between atoms: _508  and  _509
REMARK  219  A    between atoms: _508  and  _511
REMARK  220  A    between atoms: _511  and  _512
REMARK  221  A    between atoms: _515  and  _517
REMARK  222  A    between atoms: _517  and  _518
REMARK  223  A    between atoms: _521  and  _523
REMARK  224  A    between atoms: _523  and  _524
REMARK  225  A    between atoms: _523  and  _526
REMARK  226  A    between atoms: _526  and  _527
REMARK  227  A    between atoms: _527  and  _528
REMARK  228  A    between atoms: _528  and  _529
REMARK                            x       y       z     vdW  Elec       q    Type
REMARK                         _______ _______ _______ _____ _____    ______ ____
ROOT
ATOM      1  O   HOH     1     -14.212  -4.192 -18.126  0.00  0.00    +0.000 OA
ENDROOT
TORSDOF 0
