REMARK  Name = ../refined-set-2016/3umo/3umo_pocket.pdb
REMARK  226 active torsions:
REMARK  status: ('A' for Active; 'I' for Inactive)
REMARK    1  A    between atoms: _1  and  _3
REMARK    2  A    between atoms: _3  and  _4
REMARK    3  A    between atoms: _6  and  _8
REMARK    4  A    between atoms: _8  and  _9
REMARK    5  A    between atoms: _8  and  _11
REMARK    6  A    between atoms: _11  and  _12
REMARK    7  A    between atoms: _17  and  _19
REMARK    8  A    between atoms: _19  and  _20
REMARK    9  A    between atoms: _19  and  _22
REMARK   10  A    between atoms: _22  and  _23
REMARK   11  A    between atoms: _23  and  _24
REMARK   12  A    between atoms: _24  and  _25
REMARK   13  A    between atoms: _34  and  _36
REMARK   14  A    between atoms: _36  and  _37
REMARK   15  A    between atoms: _36  and  _39
REMARK   16  A    between atoms: _39  and  _40
REMARK   17  A    between atoms: _42  and  _44
REMARK   18  A    between atoms: _44  and  _45
REMARK   19  A    between atoms: _44  and  _47
REMARK   20  A    between atoms: _47  and  _48
REMARK   21  A    between atoms: _51  and  _53
REMARK   22  A    between atoms: _53  and  _54
REMARK   23  A    between atoms: _53  and  _56
REMARK   24  A    between atoms: _56  and  _57
REMARK   25  A    between atoms: _59  and  _61
REMARK   26  A    between atoms: _61  and  _62
REMARK   27  A    between atoms: _61  and  _64
REMARK   28  A    between atoms: _64  and  _65
REMARK   29  A    between atoms: _65  and  _66
REMARK   30  A    between atoms: _66  and  _67
REMARK   31  A    between atoms: _67  and  _68
REMARK   32  A    between atoms: _73  and  _74
REMARK   33  A    between atoms: _79  and  _81
REMARK   34  A    between atoms: _81  and  _82
REMARK   35  A    between atoms: _81  and  _84
REMARK   36  A    between atoms: _84  and  _85
REMARK   37  A    between atoms: _90  and  _92
REMARK   38  A    between atoms: _92  and  _93
REMARK   39  A    between atoms: _92  and  _95
REMARK   40  A    between atoms: _95  and  _96
REMARK   41  A    between atoms: _96  and  _97
REMARK   42  A    between atoms: _102  and  _104
REMARK   43  A    between atoms: _104  and  _105
REMARK   44  A    between atoms: _104  and  _107
REMARK   45  A    between atoms: _107  and  _108
REMARK   46  A    between atoms: _108  and  _109
REMARK   47  A    between atoms: _109  and  _110
REMARK   48  A    between atoms: _110  and  _111
REMARK   49  A    between atoms: _115  and  _117
REMARK   50  A    between atoms: _117  and  _118
REMARK   51  A    between atoms: _117  and  _120
REMARK   52  A    between atoms: _120  and  _121
REMARK   53  A    between atoms: _121  and  _122
REMARK   54  A    between atoms: _125  and  _127
REMARK   55  A    between atoms: _127  and  _128
REMARK   56  A    between atoms: _127  and  _130
REMARK   57  A    between atoms: _133  and  _135
REMARK   58  A    between atoms: _135  and  _136
REMARK   59  A    between atoms: _135  and  _138
REMARK   60  A    between atoms: _141  and  _143
REMARK   61  A    between atoms: _143  and  _144
REMARK   62  A    between atoms: _143  and  _146
REMARK   63  A    between atoms: _146  and  _147
REMARK   64  A    between atoms: _149  and  _151
REMARK   65  A    between atoms: _151  and  _152
REMARK   66  A    between atoms: _151  and  _154
REMARK   67  A    between atoms: _154  and  _155
REMARK   68  A    between atoms: _158  and  _160
REMARK   69  A    between atoms: _160  and  _161
REMARK   70  A    between atoms: _164  and  _165
REMARK   71  A    between atoms: _170  and  _172
REMARK   72  A    between atoms: _172  and  _173
REMARK   73  A    between atoms: _172  and  _175
REMARK   74  A    between atoms: _175  and  _176
REMARK   75  A    between atoms: _176  and  _177
REMARK   76  A    between atoms: _182  and  _184
REMARK   77  A    between atoms: _184  and  _185
REMARK   78  A    between atoms: _187  and  _189
REMARK   79  A    between atoms: _189  and  _190
REMARK   80  A    between atoms: _193  and  _195
REMARK   81  A    between atoms: _195  and  _196
REMARK   82  A    between atoms: _195  and  _198
REMARK   83  A    between atoms: _198  and  _199
REMARK   84  A    between atoms: _202  and  _204
REMARK   85  A    between atoms: _204  and  _205
REMARK   86  A    between atoms: _204  and  _207
REMARK   87  A    between atoms: _210  and  _212
REMARK   88  A    between atoms: _212  and  _213
REMARK   89  A    between atoms: _212  and  _215
REMARK   90  A    between atoms: _219  and  _220
REMARK   91  A    between atoms: _226  and  _227
REMARK   92  A    between atoms: _233  and  _234
REMARK   93  A    between atoms: _239  and  _241
REMARK   94  A    between atoms: _241  and  _242
REMARK   95  A    between atoms: _241  and  _244
REMARK   96  A    between atoms: _247  and  _249
REMARK   97  A    between atoms: _249  and  _250
REMARK   98  A    between atoms: _249  and  _252
REMARK   99  A    between atoms: _252  and  _253
REMARK  100  A    between atoms: _253  and  _254
REMARK  101  A    between atoms: _254  and  _255
REMARK  102  A    between atoms: _255  and  _256
REMARK  103  A    between atoms: _260  and  _262
REMARK  104  A    between atoms: _262  and  _263
REMARK  105  A    between atoms: _262  and  _265
REMARK  106  A    between atoms: _265  and  _266
REMARK  107  A    between atoms: _268  and  _270
REMARK  108  A    between atoms: _270  and  _271
REMARK  109  A    between atoms: _270  and  _273
REMARK  110  A    between atoms: _273  and  _274
REMARK  111  A    between atoms: _274  and  _275
REMARK  112  A    between atoms: _280  and  _282
REMARK  113  A    between atoms: _282  and  _283
REMARK  114  A    between atoms: _282  and  _285
REMARK  115  A    between atoms: _285  and  _286
REMARK  116  A    between atoms: _288  and  _290
REMARK  117  A    between atoms: _290  and  _291
REMARK  118  A    between atoms: _290  and  _293
REMARK  119  A    between atoms: _293  and  _294
REMARK  120  A    between atoms: _297  and  _299
REMARK  121  A    between atoms: _299  and  _300
REMARK  122  A    between atoms: _299  and  _302
REMARK  123  A    between atoms: _305  and  _307
REMARK  124  A    between atoms: _307  and  _308
REMARK  125  A    between atoms: _310  and  _312
REMARK  126  A    between atoms: _312  and  _313
REMARK  127  A    between atoms: _316  and  _318
REMARK  128  A    between atoms: _318  and  _319
REMARK  129  A    between atoms: _321  and  _323
REMARK  130  A    between atoms: _323  and  _324
REMARK  131  A    between atoms: _323  and  _326
REMARK  132  A    between atoms: _326  and  _327
REMARK  133  A    between atoms: _330  and  _332
REMARK  134  A    between atoms: _332  and  _333
REMARK  135  A    between atoms: _332  and  _335
REMARK  136  A    between atoms: _335  and  _336
REMARK  137  A    between atoms: _338  and  _340
REMARK  138  A    between atoms: _340  and  _341
REMARK  139  A    between atoms: _340  and  _343
REMARK  140  A    between atoms: _343  and  _344
REMARK  141  A    between atoms: _344  and  _345
REMARK  142  A    between atoms: _347  and  _349
REMARK  143  A    between atoms: _349  and  _350
REMARK  144  A    between atoms: _349  and  _352
REMARK  145  A    between atoms: _355  and  _357
REMARK  146  A    between atoms: _357  and  _358
REMARK  147  A    between atoms: _357  and  _360
REMARK  148  A    between atoms: _360  and  _361
REMARK  149  A    between atoms: _361  and  _362
REMARK  150  A    between atoms: _364  and  _366
REMARK  151  A    between atoms: _366  and  _367
REMARK  152  A    between atoms: _366  and  _369
REMARK  153  A    between atoms: _372  and  _374
REMARK  154  A    between atoms: _374  and  _375
REMARK  155  A    between atoms: _374  and  _377
REMARK  156  A    between atoms: _377  and  _378
REMARK  157  A    between atoms: _378  and  _379
REMARK  158  A    between atoms: _379  and  _380
REMARK  159  A    between atoms: _389  and  _391
REMARK  160  A    between atoms: _391  and  _392
REMARK  161  A    between atoms: _391  and  _394
REMARK  162  A    between atoms: _394  and  _395
REMARK  163  A    between atoms: _401  and  _403
REMARK  164  A    between atoms: _403  and  _404
REMARK  165  A    between atoms: _406  and  _408
REMARK  166  A    between atoms: _408  and  _409
REMARK  167  A    between atoms: _408  and  _411
REMARK  168  A    between atoms: _414  and  _416
REMARK  169  A    between atoms: _416  and  _417
REMARK  170  A    between atoms: _420  and  _422
REMARK  171  A    between atoms: _422  and  _423
REMARK  172  A    between atoms: _426  and  _428
REMARK  173  A    between atoms: _428  and  _429
REMARK  174  A    between atoms: _431  and  _433
REMARK  175  A    between atoms: _433  and  _434
REMARK  176  A    between atoms: _433  and  _436
REMARK  177  A    between atoms: _436  and  _437
REMARK  178  A    between atoms: _439  and  _441
REMARK  179  A    between atoms: _441  and  _442
REMARK  180  A    between atoms: _445  and  _447
REMARK  181  A    between atoms: _447  and  _448
REMARK  182  A    between atoms: _451  and  _453
REMARK  183  A    between atoms: _453  and  _454
REMARK  184  A    between atoms: _453  and  _456
REMARK  185  A    between atoms: _456  and  _457
REMARK  186  A    between atoms: _460  and  _462
REMARK  187  A    between atoms: _462  and  _463
REMARK  188  A    between atoms: _462  and  _465
REMARK  189  A    between atoms: _465  and  _466
REMARK  190  A    between atoms: _469  and  _471
REMARK  191  A    between atoms: _471  and  _472
REMARK  192  A    between atoms: _471  and  _474
REMARK  193  A    between atoms: _474  and  _475
REMARK  194  A    between atoms: _478  and  _480
REMARK  195  A    between atoms: _480  and  _481
REMARK  196  A    between atoms: _480  and  _483
REMARK  197  A    between atoms: _483  and  _484
REMARK  198  A    between atoms: _487  and  _489
REMARK  199  A    between atoms: _489  and  _490
REMARK  200  A    between atoms: _489  and  _492
REMARK  201  A    between atoms: _492  and  _493
REMARK  202  A    between atoms: _496  and  _498
REMARK  203  A    between atoms: _498  and  _499
REMARK  204  A    between atoms: _498  and  _501
REMARK  205  A    between atoms: _501  and  _502
REMARK  206  A    between atoms: _502  and  _503
REMARK  207  A    between atoms: _506  and  _508
REMARK  208  A    between atoms: _508  and  _509
REMARK  209  A    between atoms: _511  and  _513
REMARK  210  A    between atoms: _513  and  _514
REMARK  211  A    between atoms: _513  and  _516
REMARK  212  A    between atoms: _516  and  _517
REMARK  213  A    between atoms: _517  and  _518
REMARK  214  A    between atoms: _518  and  _519
REMARK  215  A    between atoms: _519  and  _520
REMARK  216  A    between atoms: _524  and  _526
REMARK  217  A    between atoms: _526  and  _527
REMARK  218  A    between atoms: _526  and  _529
REMARK  219  A    between atoms: _529  and  _530
REMARK  220  A    between atoms: _530  and  _531
REMARK  221  A    between atoms: _537  and  _538
REMARK  222  A    between atoms: _543  and  _545
REMARK  223  A    between atoms: _545  and  _546
REMARK  224  A    between atoms: _545  and  _548
REMARK  225  A    between atoms: _548  and  _549
REMARK  226  A    between atoms: _549  and  _550
REMARK                            x       y       z     vdW  Elec       q    Type
REMARK                         _______ _______ _______ _____ _____    ______ ____
ROOT
ATOM      1  CA  GLY A   1       9.215 -13.384  25.050  0.00  0.00    +0.156 C 
ENDROOT
BRANCH   1   2
ATOM      2  N   GLY A   1       9.190 -11.952  25.285  0.00  0.00    -0.238 NA
ATOM      3  H   GLY A   1      10.087 -11.425  25.268  0.00  0.00    +0.142 HD
ENDBRANCH   1   2
BRANCH   1   4
ATOM      4  C   GLY A   1       8.602 -14.204  26.165  0.00  0.00    +0.226 C 
ATOM      5  O   GLY A   1       7.587 -14.873  25.959  0.00  0.00    -0.287 OA
ENDBRANCH   1   4
TORSDOF 2
REMARK  Name = ../refined-set-2016/3umo/3umo_pocket.pdb
REMARK  226 active torsions:
REMARK  status: ('A' for Active; 'I' for Inactive)
REMARK    1  A    between atoms: _1  and  _3
REMARK    2  A    between atoms: _3  and  _4
REMARK    3  A    between atoms: _6  and  _8
REMARK    4  A    between atoms: _8  and  _9
REMARK    5  A    between atoms: _8  and  _11
REMARK    6  A    between atoms: _11  and  _12
REMARK    7  A    between atoms: _17  and  _19
REMARK    8  A    between atoms: _19  and  _20
REMARK    9  A    between atoms: _19  and  _22
REMARK   10  A    between atoms: _22  and  _23
REMARK   11  A    between atoms: _23  and  _24
REMARK   12  A    between atoms: _24  and  _25
REMARK   13  A    between atoms: _34  and  _36
REMARK   14  A    between atoms: _36  and  _37
REMARK   15  A    between atoms: _36  and  _39
REMARK   16  A    between atoms: _39  and  _40
REMARK   17  A    between atoms: _42  and  _44
REMARK   18  A    between atoms: _44  and  _45
REMARK   19  A    between atoms: _44  and  _47
REMARK   20  A    between atoms: _47  and  _48
REMARK   21  A    between atoms: _51  and  _53
REMARK   22  A    between atoms: _53  and  _54
REMARK   23  A    between atoms: _53  and  _56
REMARK   24  A    between atoms: _56  and  _57
REMARK   25  A    between atoms: _59  and  _61
REMARK   26  A    between atoms: _61  and  _62
REMARK   27  A    between atoms: _61  and  _64
REMARK   28  A    between atoms: _64  and  _65
REMARK   29  A    between atoms: _65  and  _66
REMARK   30  A    between atoms: _66  and  _67
REMARK   31  A    between atoms: _67  and  _68
REMARK   32  A    between atoms: _73  and  _74
REMARK   33  A    between atoms: _79  and  _81
REMARK   34  A    between atoms: _81  and  _82
REMARK   35  A    between atoms: _81  and  _84
REMARK   36  A    between atoms: _84  and  _85
REMARK   37  A    between atoms: _90  and  _92
REMARK   38  A    between atoms: _92  and  _93
REMARK   39  A    between atoms: _92  and  _95
REMARK   40  A    between atoms: _95  and  _96
REMARK   41  A    between atoms: _96  and  _97
REMARK   42  A    between atoms: _102  and  _104
REMARK   43  A    between atoms: _104  and  _105
REMARK   44  A    between atoms: _104  and  _107
REMARK   45  A    between atoms: _107  and  _108
REMARK   46  A    between atoms: _108  and  _109
REMARK   47  A    between atoms: _109  and  _110
REMARK   48  A    between atoms: _110  and  _111
REMARK   49  A    between atoms: _115  and  _117
REMARK   50  A    between atoms: _117  and  _118
REMARK   51  A    between atoms: _117  and  _120
REMARK   52  A    between atoms: _120  and  _121
REMARK   53  A    between atoms: _121  and  _122
REMARK   54  A    between atoms: _125  and  _127
REMARK   55  A    between atoms: _127  and  _128
REMARK   56  A    between atoms: _127  and  _130
REMARK   57  A    between atoms: _133  and  _135
REMARK   58  A    between atoms: _135  and  _136
REMARK   59  A    between atoms: _135  and  _138
REMARK   60  A    between atoms: _141  and  _143
REMARK   61  A    between atoms: _143  and  _144
REMARK   62  A    between atoms: _143  and  _146
REMARK   63  A    between atoms: _146  and  _147
REMARK   64  A    between atoms: _149  and  _151
REMARK   65  A    between atoms: _151  and  _152
REMARK   66  A    between atoms: _151  and  _154
REMARK   67  A    between atoms: _154  and  _155
REMARK   68  A    between atoms: _158  and  _160
REMARK   69  A    between atoms: _160  and  _161
REMARK   70  A    between atoms: _164  and  _165
REMARK   71  A    between atoms: _170  and  _172
REMARK   72  A    between atoms: _172  and  _173
REMARK   73  A    between atoms: _172  and  _175
REMARK   74  A    between atoms: _175  and  _176
REMARK   75  A    between atoms: _176  and  _177
REMARK   76  A    between atoms: _182  and  _184
REMARK   77  A    between atoms: _184  and  _185
REMARK   78  A    between atoms: _187  and  _189
REMARK   79  A    between atoms: _189  and  _190
REMARK   80  A    between atoms: _193  and  _195
REMARK   81  A    between atoms: _195  and  _196
REMARK   82  A    between atoms: _195  and  _198
REMARK   83  A    between atoms: _198  and  _199
REMARK   84  A    between atoms: _202  and  _204
REMARK   85  A    between atoms: _204  and  _205
REMARK   86  A    between atoms: _204  and  _207
REMARK   87  A    between atoms: _210  and  _212
REMARK   88  A    between atoms: _212  and  _213
REMARK   89  A    between atoms: _212  and  _215
REMARK   90  A    between atoms: _219  and  _220
REMARK   91  A    between atoms: _226  and  _227
REMARK   92  A    between atoms: _233  and  _234
REMARK   93  A    between atoms: _239  and  _241
REMARK   94  A    between atoms: _241  and  _242
REMARK   95  A    between atoms: _241  and  _244
REMARK   96  A    between atoms: _247  and  _249
REMARK   97  A    between atoms: _249  and  _250
REMARK   98  A    between atoms: _249  and  _252
REMARK   99  A    between atoms: _252  and  _253
REMARK  100  A    between atoms: _253  and  _254
REMARK  101  A    between atoms: _254  and  _255
REMARK  102  A    between atoms: _255  and  _256
REMARK  103  A    between atoms: _260  and  _262
REMARK  104  A    between atoms: _262  and  _263
REMARK  105  A    between atoms: _262  and  _265
REMARK  106  A    between atoms: _265  and  _266
REMARK  107  A    between atoms: _268  and  _270
REMARK  108  A    between atoms: _270  and  _271
REMARK  109  A    between atoms: _270  and  _273
REMARK  110  A    between atoms: _273  and  _274
REMARK  111  A    between atoms: _274  and  _275
REMARK  112  A    between atoms: _280  and  _282
REMARK  113  A    between atoms: _282  and  _283
REMARK  114  A    between atoms: _282  and  _285
REMARK  115  A    between atoms: _285  and  _286
REMARK  116  A    between atoms: _288  and  _290
REMARK  117  A    between atoms: _290  and  _291
REMARK  118  A    between atoms: _290  and  _293
REMARK  119  A    between atoms: _293  and  _294
REMARK  120  A    between atoms: _297  and  _299
REMARK  121  A    between atoms: _299  and  _300
REMARK  122  A    between atoms: _299  and  _302
REMARK  123  A    between atoms: _305  and  _307
REMARK  124  A    between atoms: _307  and  _308
REMARK  125  A    between atoms: _310  and  _312
REMARK  126  A    between atoms: _312  and  _313
REMARK  127  A    between atoms: _316  and  _318
REMARK  128  A    between atoms: _318  and  _319
REMARK  129  A    between atoms: _321  and  _323
REMARK  130  A    between atoms: _323  and  _324
REMARK  131  A    between atoms: _323  and  _326
REMARK  132  A    between atoms: _326  and  _327
REMARK  133  A    between atoms: _330  and  _332
REMARK  134  A    between atoms: _332  and  _333
REMARK  135  A    between atoms: _332  and  _335
REMARK  136  A    between atoms: _335  and  _336
REMARK  137  A    between atoms: _338  and  _340
REMARK  138  A    between atoms: _340  and  _341
REMARK  139  A    between atoms: _340  and  _343
REMARK  140  A    between atoms: _343  and  _344
REMARK  141  A    between atoms: _344  and  _345
REMARK  142  A    between atoms: _347  and  _349
REMARK  143  A    between atoms: _349  and  _350
REMARK  144  A    between atoms: _349  and  _352
REMARK  145  A    between atoms: _355  and  _357
REMARK  146  A    between atoms: _357  and  _358
REMARK  147  A    between atoms: _357  and  _360
REMARK  148  A    between atoms: _360  and  _361
REMARK  149  A    between atoms: _361  and  _362
REMARK  150  A    between atoms: _364  and  _366
REMARK  151  A    between atoms: _366  and  _367
REMARK  152  A    between atoms: _366  and  _369
REMARK  153  A    between atoms: _372  and  _374
REMARK  154  A    between atoms: _374  and  _375
REMARK  155  A    between atoms: _374  and  _377
REMARK  156  A    between atoms: _377  and  _378
REMARK  157  A    between atoms: _378  and  _379
REMARK  158  A    between atoms: _379  and  _380
REMARK  159  A    between atoms: _389  and  _391
REMARK  160  A    between atoms: _391  and  _392
REMARK  161  A    between atoms: _391  and  _394
REMARK  162  A    between atoms: _394  and  _395
REMARK  163  A    between atoms: _401  and  _403
REMARK  164  A    between atoms: _403  and  _404
REMARK  165  A    between atoms: _406  and  _408
REMARK  166  A    between atoms: _408  and  _409
REMARK  167  A    between atoms: _408  and  _411
REMARK  168  A    between atoms: _414  and  _416
REMARK  169  A    between atoms: _416  and  _417
REMARK  170  A    between atoms: _420  and  _422
REMARK  171  A    between atoms: _422  and  _423
REMARK  172  A    between atoms: _426  and  _428
REMARK  173  A    between atoms: _428  and  _429
REMARK  174  A    between atoms: _431  and  _433
REMARK  175  A    between atoms: _433  and  _434
REMARK  176  A    between atoms: _433  and  _436
REMARK  177  A    between atoms: _436  and  _437
REMARK  178  A    between atoms: _439  and  _441
REMARK  179  A    between atoms: _441  and  _442
REMARK  180  A    between atoms: _445  and  _447
REMARK  181  A    between atoms: _447  and  _448
REMARK  182  A    between atoms: _451  and  _453
REMARK  183  A    between atoms: _453  and  _454
REMARK  184  A    between atoms: _453  and  _456
REMARK  185  A    between atoms: _456  and  _457
REMARK  186  A    between atoms: _460  and  _462
REMARK  187  A    between atoms: _462  and  _463
REMARK  188  A    between atoms: _462  and  _465
REMARK  189  A    between atoms: _465  and  _466
REMARK  190  A    between atoms: _469  and  _471
REMARK  191  A    between atoms: _471  and  _472
REMARK  192  A    between atoms: _471  and  _474
REMARK  193  A    between atoms: _474  and  _475
REMARK  194  A    between atoms: _478  and  _480
REMARK  195  A    between atoms: _480  and  _481
REMARK  196  A    between atoms: _480  and  _483
REMARK  197  A    between atoms: _483  and  _484
REMARK  198  A    between atoms: _487  and  _489
REMARK  199  A    between atoms: _489  and  _490
REMARK  200  A    between atoms: _489  and  _492
REMARK  201  A    between atoms: _492  and  _493
REMARK  202  A    between atoms: _496  and  _498
REMARK  203  A    between atoms: _498  and  _499
REMARK  204  A    between atoms: _498  and  _501
REMARK  205  A    between atoms: _501  and  _502
REMARK  206  A    between atoms: _502  and  _503
REMARK  207  A    between atoms: _506  and  _508
REMARK  208  A    between atoms: _508  and  _509
REMARK  209  A    between atoms: _511  and  _513
REMARK  210  A    between atoms: _513  and  _514
REMARK  211  A    between atoms: _513  and  _516
REMARK  212  A    between atoms: _516  and  _517
REMARK  213  A    between atoms: _517  and  _518
REMARK  214  A    between atoms: _518  and  _519
REMARK  215  A    between atoms: _519  and  _520
REMARK  216  A    between atoms: _524  and  _526
REMARK  217  A    between atoms: _526  and  _527
REMARK  218  A    between atoms: _526  and  _529
REMARK  219  A    between atoms: _529  and  _530
REMARK  220  A    between atoms: _530  and  _531
REMARK  221  A    between atoms: _537  and  _538
REMARK  222  A    between atoms: _543  and  _545
REMARK  223  A    between atoms: _545  and  _546
REMARK  224  A    between atoms: _545  and  _548
REMARK  225  A    between atoms: _548  and  _549
REMARK  226  A    between atoms: _549  and  _550
REMARK                            x       y       z     vdW  Elec       q    Type
REMARK                         _______ _______ _______ _____ _____    ______ ____
ROOT
ATOM      1  CB  ASN A   1       4.399 -13.701  24.482  0.00  0.00    +0.110 C 
ENDROOT
BRANCH   1   2
ATOM      2  CG  ASN A   1       3.861 -12.330  24.136  0.00  0.00    +0.221 C 
ATOM      3  OD1 ASN A   1       2.778 -11.953  24.581  0.00  0.00    -0.275 OA
ATOM      4  ND2 ASN A   1       4.613 -11.577  23.342  0.00  0.00    -0.329 N 
ATOM      5 HD21 ASN A   1       4.293 -10.625  23.072  0.00  0.00    +0.145 HD
ATOM      6 HD22 ASN A   1       5.522 -11.939  22.990  0.00  0.00    +0.145 HD
ENDBRANCH   1   2
BRANCH   1   7
ATOM      7  CA  ASN A   1       4.046 -14.113  25.912  0.00  0.00    +0.142 C 
BRANCH   7   8
ATOM      8  N   ASN A   1       4.948 -13.494  26.872  0.00  0.00    -0.239 NA
ATOM      9  H   ASN A   1       5.842 -13.077  26.543  0.00  0.00    +0.142 HD
ENDBRANCH   7   8
BRANCH   7  10
ATOM     10  C   ASN A   1       3.959 -15.627  26.065  0.00  0.00    +0.225 C 
ATOM     11  O   ASN A   1       2.905 -16.208  25.841  0.00  0.00    -0.287 OA
ENDBRANCH   7  10
ENDBRANCH   1   7
TORSDOF 4
REMARK  Name = ../refined-set-2016/3umo/3umo_pocket.pdb
REMARK  226 active torsions:
REMARK  status: ('A' for Active; 'I' for Inactive)
REMARK    1  A    between atoms: _1  and  _3
REMARK    2  A    between atoms: _3  and  _4
REMARK    3  A    between atoms: _6  and  _8
REMARK    4  A    between atoms: _8  and  _9
REMARK    5  A    between atoms: _8  and  _11
REMARK    6  A    between atoms: _11  and  _12
REMARK    7  A    between atoms: _17  and  _19
REMARK    8  A    between atoms: _19  and  _20
REMARK    9  A    between atoms: _19  and  _22
REMARK   10  A    between atoms: _22  and  _23
REMARK   11  A    between atoms: _23  and  _24
REMARK   12  A    between atoms: _24  and  _25
REMARK   13  A    between atoms: _34  and  _36
REMARK   14  A    between atoms: _36  and  _37
REMARK   15  A    between atoms: _36  and  _39
REMARK   16  A    between atoms: _39  and  _40
REMARK   17  A    between atoms: _42  and  _44
REMARK   18  A    between atoms: _44  and  _45
REMARK   19  A    between atoms: _44  and  _47
REMARK   20  A    between atoms: _47  and  _48
REMARK   21  A    between atoms: _51  and  _53
REMARK   22  A    between atoms: _53  and  _54
REMARK   23  A    between atoms: _53  and  _56
REMARK   24  A    between atoms: _56  and  _57
REMARK   25  A    between atoms: _59  and  _61
REMARK   26  A    between atoms: _61  and  _62
REMARK   27  A    between atoms: _61  and  _64
REMARK   28  A    between atoms: _64  and  _65
REMARK   29  A    between atoms: _65  and  _66
REMARK   30  A    between atoms: _66  and  _67
REMARK   31  A    between atoms: _67  and  _68
REMARK   32  A    between atoms: _73  and  _74
REMARK   33  A    between atoms: _79  and  _81
REMARK   34  A    between atoms: _81  and  _82
REMARK   35  A    between atoms: _81  and  _84
REMARK   36  A    between atoms: _84  and  _85
REMARK   37  A    between atoms: _90  and  _92
REMARK   38  A    between atoms: _92  and  _93
REMARK   39  A    between atoms: _92  and  _95
REMARK   40  A    between atoms: _95  and  _96
REMARK   41  A    between atoms: _96  and  _97
REMARK   42  A    between atoms: _102  and  _104
REMARK   43  A    between atoms: _104  and  _105
REMARK   44  A    between atoms: _104  and  _107
REMARK   45  A    between atoms: _107  and  _108
REMARK   46  A    between atoms: _108  and  _109
REMARK   47  A    between atoms: _109  and  _110
REMARK   48  A    between atoms: _110  and  _111
REMARK   49  A    between atoms: _115  and  _117
REMARK   50  A    between atoms: _117  and  _118
REMARK   51  A    between atoms: _117  and  _120
REMARK   52  A    between atoms: _120  and  _121
REMARK   53  A    between atoms: _121  and  _122
REMARK   54  A    between atoms: _125  and  _127
REMARK   55  A    between atoms: _127  and  _128
REMARK   56  A    between atoms: _127  and  _130
REMARK   57  A    between atoms: _133  and  _135
REMARK   58  A    between atoms: _135  and  _136
REMARK   59  A    between atoms: _135  and  _138
REMARK   60  A    between atoms: _141  and  _143
REMARK   61  A    between atoms: _143  and  _144
REMARK   62  A    between atoms: _143  and  _146
REMARK   63  A    between atoms: _146  and  _147
REMARK   64  A    between atoms: _149  and  _151
REMARK   65  A    between atoms: _151  and  _152
REMARK   66  A    between atoms: _151  and  _154
REMARK   67  A    between atoms: _154  and  _155
REMARK   68  A    between atoms: _158  and  _160
REMARK   69  A    between atoms: _160  and  _161
REMARK   70  A    between atoms: _164  and  _165
REMARK   71  A    between atoms: _170  and  _172
REMARK   72  A    between atoms: _172  and  _173
REMARK   73  A    between atoms: _172  and  _175
REMARK   74  A    between atoms: _175  and  _176
REMARK   75  A    between atoms: _176  and  _177
REMARK   76  A    between atoms: _182  and  _184
REMARK   77  A    between atoms: _184  and  _185
REMARK   78  A    between atoms: _187  and  _189
REMARK   79  A    between atoms: _189  and  _190
REMARK   80  A    between atoms: _193  and  _195
REMARK   81  A    between atoms: _195  and  _196
REMARK   82  A    between atoms: _195  and  _198
REMARK   83  A    between atoms: _198  and  _199
REMARK   84  A    between atoms: _202  and  _204
REMARK   85  A    between atoms: _204  and  _205
REMARK   86  A    between atoms: _204  and  _207
REMARK   87  A    between atoms: _210  and  _212
REMARK   88  A    between atoms: _212  and  _213
REMARK   89  A    between atoms: _212  and  _215
REMARK   90  A    between atoms: _219  and  _220
REMARK   91  A    between atoms: _226  and  _227
REMARK   92  A    between atoms: _233  and  _234
REMARK   93  A    between atoms: _239  and  _241
REMARK   94  A    between atoms: _241  and  _242
REMARK   95  A    between atoms: _241  and  _244
REMARK   96  A    between atoms: _247  and  _249
REMARK   97  A    between atoms: _249  and  _250
REMARK   98  A    between atoms: _249  and  _252
REMARK   99  A    between atoms: _252  and  _253
REMARK  100  A    between atoms: _253  and  _254
REMARK  101  A    between atoms: _254  and  _255
REMARK  102  A    between atoms: _255  and  _256
REMARK  103  A    between atoms: _260  and  _262
REMARK  104  A    between atoms: _262  and  _263
REMARK  105  A    between atoms: _262  and  _265
REMARK  106  A    between atoms: _265  and  _266
REMARK  107  A    between atoms: _268  and  _270
REMARK  108  A    between atoms: _270  and  _271
REMARK  109  A    between atoms: _270  and  _273
REMARK  110  A    between atoms: _273  and  _274
REMARK  111  A    between atoms: _274  and  _275
REMARK  112  A    between atoms: _280  and  _282
REMARK  113  A    between atoms: _282  and  _283
REMARK  114  A    between atoms: _282  and  _285
REMARK  115  A    between atoms: _285  and  _286
REMARK  116  A    between atoms: _288  and  _290
REMARK  117  A    between atoms: _290  and  _291
REMARK  118  A    between atoms: _290  and  _293
REMARK  119  A    between atoms: _293  and  _294
REMARK  120  A    between atoms: _297  and  _299
REMARK  121  A    between atoms: _299  and  _300
REMARK  122  A    between atoms: _299  and  _302
REMARK  123  A    between atoms: _305  and  _307
REMARK  124  A    between atoms: _307  and  _308
REMARK  125  A    between atoms: _310  and  _312
REMARK  126  A    between atoms: _312  and  _313
REMARK  127  A    between atoms: _316  and  _318
REMARK  128  A    between atoms: _318  and  _319
REMARK  129  A    between atoms: _321  and  _323
REMARK  130  A    between atoms: _323  and  _324
REMARK  131  A    between atoms: _323  and  _326
REMARK  132  A    between atoms: _326  and  _327
REMARK  133  A    between atoms: _330  and  _332
REMARK  134  A    between atoms: _332  and  _333
REMARK  135  A    between atoms: _332  and  _335
REMARK  136  A    between atoms: _335  and  _336
REMARK  137  A    between atoms: _338  and  _340
REMARK  138  A    between atoms: _340  and  _341
REMARK  139  A    between atoms: _340  and  _343
REMARK  140  A    between atoms: _343  and  _344
REMARK  141  A    between atoms: _344  and  _345
REMARK  142  A    between atoms: _347  and  _349
REMARK  143  A    between atoms: _349  and  _350
REMARK  144  A    between atoms: _349  and  _352
REMARK  145  A    between atoms: _355  and  _357
REMARK  146  A    between atoms: _357  and  _358
REMARK  147  A    between atoms: _357  and  _360
REMARK  148  A    between atoms: _360  and  _361
REMARK  149  A    between atoms: _361  and  _362
REMARK  150  A    between atoms: _364  and  _366
REMARK  151  A    between atoms: _366  and  _367
REMARK  152  A    between atoms: _366  and  _369
REMARK  153  A    between atoms: _372  and  _374
REMARK  154  A    between atoms: _374  and  _375
REMARK  155  A    between atoms: _374  and  _377
REMARK  156  A    between atoms: _377  and  _378
REMARK  157  A    between atoms: _378  and  _379
REMARK  158  A    between atoms: _379  and  _380
REMARK  159  A    between atoms: _389  and  _391
REMARK  160  A    between atoms: _391  and  _392
REMARK  161  A    between atoms: _391  and  _394
REMARK  162  A    between atoms: _394  and  _395
REMARK  163  A    between atoms: _401  and  _403
REMARK  164  A    between atoms: _403  and  _404
REMARK  165  A    between atoms: _406  and  _408
REMARK  166  A    between atoms: _408  and  _409
REMARK  167  A    between atoms: _408  and  _411
REMARK  168  A    between atoms: _414  and  _416
REMARK  169  A    between atoms: _416  and  _417
REMARK  170  A    between atoms: _420  and  _422
REMARK  171  A    between atoms: _422  and  _423
REMARK  172  A    between atoms: _426  and  _428
REMARK  173  A    between atoms: _428  and  _429
REMARK  174  A    between atoms: _431  and  _433
REMARK  175  A    between atoms: _433  and  _434
REMARK  176  A    between atoms: _433  and  _436
REMARK  177  A    between atoms: _436  and  _437
REMARK  178  A    between atoms: _439  and  _441
REMARK  179  A    between atoms: _441  and  _442
REMARK  180  A    between atoms: _445  and  _447
REMARK  181  A    between atoms: _447  and  _448
REMARK  182  A    between atoms: _451  and  _453
REMARK  183  A    between atoms: _453  and  _454
REMARK  184  A    between atoms: _453  and  _456
REMARK  185  A    between atoms: _456  and  _457
REMARK  186  A    between atoms: _460  and  _462
REMARK  187  A    between atoms: _462  and  _463
REMARK  188  A    between atoms: _462  and  _465
REMARK  189  A    between atoms: _465  and  _466
REMARK  190  A    between atoms: _469  and  _471
REMARK  191  A    between atoms: _471  and  _472
REMARK  192  A    between atoms: _471  and  _474
REMARK  193  A    between atoms: _474  and  _475
REMARK  194  A    between atoms: _478  and  _480
REMARK  195  A    between atoms: _480  and  _481
REMARK  196  A    between atoms: _480  and  _483
REMARK  197  A    between atoms: _483  and  _484
REMARK  198  A    between atoms: _487  and  _489
REMARK  199  A    between atoms: _489  and  _490
REMARK  200  A    between atoms: _489  and  _492
REMARK  201  A    between atoms: _492  and  _493
REMARK  202  A    between atoms: _496  and  _498
REMARK  203  A    between atoms: _498  and  _499
REMARK  204  A    between atoms: _498  and  _501
REMARK  205  A    between atoms: _501  and  _502
REMARK  206  A    between atoms: _502  and  _503
REMARK  207  A    between atoms: _506  and  _508
REMARK  208  A    between atoms: _508  and  _509
REMARK  209  A    between atoms: _511  and  _513
REMARK  210  A    between atoms: _513  and  _514
REMARK  211  A    between atoms: _513  and  _516
REMARK  212  A    between atoms: _516  and  _517
REMARK  213  A    between atoms: _517  and  _518
REMARK  214  A    between atoms: _518  and  _519
REMARK  215  A    between atoms: _519  and  _520
REMARK  216  A    between atoms: _524  and  _526
REMARK  217  A    between atoms: _526  and  _527
REMARK  218  A    between atoms: _526  and  _529
REMARK  219  A    between atoms: _529  and  _530
REMARK  220  A    between atoms: _530  and  _531
REMARK  221  A    between atoms: _537  and  _538
REMARK  222  A    between atoms: _543  and  _545
REMARK  223  A    between atoms: _545  and  _546
REMARK  224  A    between atoms: _545  and  _548
REMARK  225  A    between atoms: _548  and  _549
REMARK  226  A    between atoms: _549  and  _550
REMARK                            x       y       z     vdW  Elec       q    Type
REMARK                         _______ _______ _______ _____ _____    ______ ____
ROOT
ATOM      1  NE  ARG A   1       5.451  -8.637  14.528  0.00  0.00    -0.265 N 
ATOM      2  HE  ARG A   1       5.392  -8.129  15.434  0.00  0.00    +0.259 HD
ATOM      3  CZ  ARG A   1       5.945  -9.876  14.543  0.00  0.00    +0.342 C 
ATOM      4  NH2 ARG A   1       6.333 -10.415  15.688  0.00  0.00    -0.292 N 
ATOM      5 HH21 ARG A   1       6.252  -9.873  16.572  0.00  0.00    +0.255 HD
ATOM      6 HH22 ARG A   1       6.719 -11.381  15.704  0.00  0.00    +0.255 HD
ATOM      7  NH1 ARG A   1       6.060 -10.575  13.421  0.00  0.00    -0.292 N 
ATOM      8 HH11 ARG A   1       6.447 -11.540  13.447  0.00  0.00    +0.255 HD
ATOM      9 HH12 ARG A   1       5.763 -10.158  12.516  0.00  0.00    +0.255 HD
ENDROOT
BRANCH   1  10
ATOM     10  CD  ARG A   1       4.988  -7.944  13.331  0.00  0.00    +0.174 C 
BRANCH  10  11
ATOM     11  CG  ARG A   1       4.784  -6.458  13.582  0.00  0.00    +0.045 C 
BRANCH  11  12
ATOM     12  CB  ARG A   1       6.119  -5.767  13.834  0.00  0.00    +0.029 C 
BRANCH  12  13
ATOM     13  CA  ARG A   1       6.079  -4.262  13.583  0.00  0.00    +0.133 C 
BRANCH  13  14
ATOM     14  N   ARG A   1       5.685  -4.009  12.207  0.00  0.00    -0.239 NA
ATOM     15  H   ARG A   1       6.332  -4.255  11.431  0.00  0.00    +0.142 HD
ENDBRANCH  13  14
BRANCH  13  16
ATOM     16  C   ARG A   1       7.436  -3.656  13.849  0.00  0.00    +0.224 C 
ATOM     17  O   ARG A   1       8.444  -4.142  13.350  0.00  0.00    -0.287 OA
ENDBRANCH  13  16
ENDBRANCH  12  13
ENDBRANCH  11  12
ENDBRANCH  10  11
ENDBRANCH   1  10
TORSDOF 6
REMARK  Name = ../refined-set-2016/3umo/3umo_pocket.pdb
REMARK  226 active torsions:
REMARK  status: ('A' for Active; 'I' for Inactive)
REMARK    1  A    between atoms: _1  and  _3
REMARK    2  A    between atoms: _3  and  _4
REMARK    3  A    between atoms: _6  and  _8
REMARK    4  A    between atoms: _8  and  _9
REMARK    5  A    between atoms: _8  and  _11
REMARK    6  A    between atoms: _11  and  _12
REMARK    7  A    between atoms: _17  and  _19
REMARK    8  A    between atoms: _19  and  _20
REMARK    9  A    between atoms: _19  and  _22
REMARK   10  A    between atoms: _22  and  _23
REMARK   11  A    between atoms: _23  and  _24
REMARK   12  A    between atoms: _24  and  _25
REMARK   13  A    between atoms: _34  and  _36
REMARK   14  A    between atoms: _36  and  _37
REMARK   15  A    between atoms: _36  and  _39
REMARK   16  A    between atoms: _39  and  _40
REMARK   17  A    between atoms: _42  and  _44
REMARK   18  A    between atoms: _44  and  _45
REMARK   19  A    between atoms: _44  and  _47
REMARK   20  A    between atoms: _47  and  _48
REMARK   21  A    between atoms: _51  and  _53
REMARK   22  A    between atoms: _53  and  _54
REMARK   23  A    between atoms: _53  and  _56
REMARK   24  A    between atoms: _56  and  _57
REMARK   25  A    between atoms: _59  and  _61
REMARK   26  A    between atoms: _61  and  _62
REMARK   27  A    between atoms: _61  and  _64
REMARK   28  A    between atoms: _64  and  _65
REMARK   29  A    between atoms: _65  and  _66
REMARK   30  A    between atoms: _66  and  _67
REMARK   31  A    between atoms: _67  and  _68
REMARK   32  A    between atoms: _73  and  _74
REMARK   33  A    between atoms: _79  and  _81
REMARK   34  A    between atoms: _81  and  _82
REMARK   35  A    between atoms: _81  and  _84
REMARK   36  A    between atoms: _84  and  _85
REMARK   37  A    between atoms: _90  and  _92
REMARK   38  A    between atoms: _92  and  _93
REMARK   39  A    between atoms: _92  and  _95
REMARK   40  A    between atoms: _95  and  _96
REMARK   41  A    between atoms: _96  and  _97
REMARK   42  A    between atoms: _102  and  _104
REMARK   43  A    between atoms: _104  and  _105
REMARK   44  A    between atoms: _104  and  _107
REMARK   45  A    between atoms: _107  and  _108
REMARK   46  A    between atoms: _108  and  _109
REMARK   47  A    between atoms: _109  and  _110
REMARK   48  A    between atoms: _110  and  _111
REMARK   49  A    between atoms: _115  and  _117
REMARK   50  A    between atoms: _117  and  _118
REMARK   51  A    between atoms: _117  and  _120
REMARK   52  A    between atoms: _120  and  _121
REMARK   53  A    between atoms: _121  and  _122
REMARK   54  A    between atoms: _125  and  _127
REMARK   55  A    between atoms: _127  and  _128
REMARK   56  A    between atoms: _127  and  _130
REMARK   57  A    between atoms: _133  and  _135
REMARK   58  A    between atoms: _135  and  _136
REMARK   59  A    between atoms: _135  and  _138
REMARK   60  A    between atoms: _141  and  _143
REMARK   61  A    between atoms: _143  and  _144
REMARK   62  A    between atoms: _143  and  _146
REMARK   63  A    between atoms: _146  and  _147
REMARK   64  A    between atoms: _149  and  _151
REMARK   65  A    between atoms: _151  and  _152
REMARK   66  A    between atoms: _151  and  _154
REMARK   67  A    between atoms: _154  and  _155
REMARK   68  A    between atoms: _158  and  _160
REMARK   69  A    between atoms: _160  and  _161
REMARK   70  A    between atoms: _164  and  _165
REMARK   71  A    between atoms: _170  and  _172
REMARK   72  A    between atoms: _172  and  _173
REMARK   73  A    between atoms: _172  and  _175
REMARK   74  A    between atoms: _175  and  _176
REMARK   75  A    between atoms: _176  and  _177
REMARK   76  A    between atoms: _182  and  _184
REMARK   77  A    between atoms: _184  and  _185
REMARK   78  A    between atoms: _187  and  _189
REMARK   79  A    between atoms: _189  and  _190
REMARK   80  A    between atoms: _193  and  _195
REMARK   81  A    between atoms: _195  and  _196
REMARK   82  A    between atoms: _195  and  _198
REMARK   83  A    between atoms: _198  and  _199
REMARK   84  A    between atoms: _202  and  _204
REMARK   85  A    between atoms: _204  and  _205
REMARK   86  A    between atoms: _204  and  _207
REMARK   87  A    between atoms: _210  and  _212
REMARK   88  A    between atoms: _212  and  _213
REMARK   89  A    between atoms: _212  and  _215
REMARK   90  A    between atoms: _219  and  _220
REMARK   91  A    between atoms: _226  and  _227
REMARK   92  A    between atoms: _233  and  _234
REMARK   93  A    between atoms: _239  and  _241
REMARK   94  A    between atoms: _241  and  _242
REMARK   95  A    between atoms: _241  and  _244
REMARK   96  A    between atoms: _247  and  _249
REMARK   97  A    between atoms: _249  and  _250
REMARK   98  A    between atoms: _249  and  _252
REMARK   99  A    between atoms: _252  and  _253
REMARK  100  A    between atoms: _253  and  _254
REMARK  101  A    between atoms: _254  and  _255
REMARK  102  A    between atoms: _255  and  _256
REMARK  103  A    between atoms: _260  and  _262
REMARK  104  A    between atoms: _262  and  _263
REMARK  105  A    between atoms: _262  and  _265
REMARK  106  A    between atoms: _265  and  _266
REMARK  107  A    between atoms: _268  and  _270
REMARK  108  A    between atoms: _270  and  _271
REMARK  109  A    between atoms: _270  and  _273
REMARK  110  A    between atoms: _273  and  _274
REMARK  111  A    between atoms: _274  and  _275
REMARK  112  A    between atoms: _280  and  _282
REMARK  113  A    between atoms: _282  and  _283
REMARK  114  A    between atoms: _282  and  _285
REMARK  115  A    between atoms: _285  and  _286
REMARK  116  A    between atoms: _288  and  _290
REMARK  117  A    between atoms: _290  and  _291
REMARK  118  A    between atoms: _290  and  _293
REMARK  119  A    between atoms: _293  and  _294
REMARK  120  A    between atoms: _297  and  _299
REMARK  121  A    between atoms: _299  and  _300
REMARK  122  A    between atoms: _299  and  _302
REMARK  123  A    between atoms: _305  and  _307
REMARK  124  A    between atoms: _307  and  _308
REMARK  125  A    between atoms: _310  and  _312
REMARK  126  A    between atoms: _312  and  _313
REMARK  127  A    between atoms: _316  and  _318
REMARK  128  A    between atoms: _318  and  _319
REMARK  129  A    between atoms: _321  and  _323
REMARK  130  A    between atoms: _323  and  _324
REMARK  131  A    between atoms: _323  and  _326
REMARK  132  A    between atoms: _326  and  _327
REMARK  133  A    between atoms: _330  and  _332
REMARK  134  A    between atoms: _332  and  _333
REMARK  135  A    between atoms: _332  and  _335
REMARK  136  A    between atoms: _335  and  _336
REMARK  137  A    between atoms: _338  and  _340
REMARK  138  A    between atoms: _340  and  _341
REMARK  139  A    between atoms: _340  and  _343
REMARK  140  A    between atoms: _343  and  _344
REMARK  141  A    between atoms: _344  and  _345
REMARK  142  A    between atoms: _347  and  _349
REMARK  143  A    between atoms: _349  and  _350
REMARK  144  A    between atoms: _349  and  _352
REMARK  145  A    between atoms: _355  and  _357
REMARK  146  A    between atoms: _357  and  _358
REMARK  147  A    between atoms: _357  and  _360
REMARK  148  A    between atoms: _360  and  _361
REMARK  149  A    between atoms: _361  and  _362
REMARK  150  A    between atoms: _364  and  _366
REMARK  151  A    between atoms: _366  and  _367
REMARK  152  A    between atoms: _366  and  _369
REMARK  153  A    between atoms: _372  and  _374
REMARK  154  A    between atoms: _374  and  _375
REMARK  155  A    between atoms: _374  and  _377
REMARK  156  A    between atoms: _377  and  _378
REMARK  157  A    between atoms: _378  and  _379
REMARK  158  A    between atoms: _379  and  _380
REMARK  159  A    between atoms: _389  and  _391
REMARK  160  A    between atoms: _391  and  _392
REMARK  161  A    between atoms: _391  and  _394
REMARK  162  A    between atoms: _394  and  _395
REMARK  163  A    between atoms: _401  and  _403
REMARK  164  A    between atoms: _403  and  _404
REMARK  165  A    between atoms: _406  and  _408
REMARK  166  A    between atoms: _408  and  _409
REMARK  167  A    between atoms: _408  and  _411
REMARK  168  A    between atoms: _414  and  _416
REMARK  169  A    between atoms: _416  and  _417
REMARK  170  A    between atoms: _420  and  _422
REMARK  171  A    between atoms: _422  and  _423
REMARK  172  A    between atoms: _426  and  _428
REMARK  173  A    between atoms: _428  and  _429
REMARK  174  A    between atoms: _431  and  _433
REMARK  175  A    between atoms: _433  and  _434
REMARK  176  A    between atoms: _433  and  _436
REMARK  177  A    between atoms: _436  and  _437
REMARK  178  A    between atoms: _439  and  _441
REMARK  179  A    between atoms: _441  and  _442
REMARK  180  A    between atoms: _445  and  _447
REMARK  181  A    between atoms: _447  and  _448
REMARK  182  A    between atoms: _451  and  _453
REMARK  183  A    between atoms: _453  and  _454
REMARK  184  A    between atoms: _453  and  _456
REMARK  185  A    between atoms: _456  and  _457
REMARK  186  A    between atoms: _460  and  _462
REMARK  187  A    between atoms: _462  and  _463
REMARK  188  A    between atoms: _462  and  _465
REMARK  189  A    between atoms: _465  and  _466
REMARK  190  A    between atoms: _469  and  _471
REMARK  191  A    between atoms: _471  and  _472
REMARK  192  A    between atoms: _471  and  _474
REMARK  193  A    between atoms: _474  and  _475
REMARK  194  A    between atoms: _478  and  _480
REMARK  195  A    between atoms: _480  and  _481
REMARK  196  A    between atoms: _480  and  _483
REMARK  197  A    between atoms: _483  and  _484
REMARK  198  A    between atoms: _487  and  _489
REMARK  199  A    between atoms: _489  and  _490
REMARK  200  A    between atoms: _489  and  _492
REMARK  201  A    between atoms: _492  and  _493
REMARK  202  A    between atoms: _496  and  _498
REMARK  203  A    between atoms: _498  and  _499
REMARK  204  A    between atoms: _498  and  _501
REMARK  205  A    between atoms: _501  and  _502
REMARK  206  A    between atoms: _502  and  _503
REMARK  207  A    between atoms: _506  and  _508
REMARK  208  A    between atoms: _508  and  _509
REMARK  209  A    between atoms: _511  and  _513
REMARK  210  A    between atoms: _513  and  _514
REMARK  211  A    between atoms: _513  and  _516
REMARK  212  A    between atoms: _516  and  _517
REMARK  213  A    between atoms: _517  and  _518
REMARK  214  A    between atoms: _518  and  _519
REMARK  215  A    between atoms: _519  and  _520
REMARK  216  A    between atoms: _524  and  _526
REMARK  217  A    between atoms: _526  and  _527
REMARK  218  A    between atoms: _526  and  _529
REMARK  219  A    between atoms: _529  and  _530
REMARK  220  A    between atoms: _530  and  _531
REMARK  221  A    between atoms: _537  and  _538
REMARK  222  A    between atoms: _543  and  _545
REMARK  223  A    between atoms: _545  and  _546
REMARK  224  A    between atoms: _545  and  _548
REMARK  225  A    between atoms: _548  and  _549
REMARK  226  A    between atoms: _549  and  _550
REMARK                            x       y       z     vdW  Elec       q    Type
REMARK                         _______ _______ _______ _____ _____    ______ ____
ROOT
ATOM      1  CA  SER A   1      12.748 -16.062  26.486  0.00  0.00    +0.163 C 
ENDROOT
BRANCH   1   2
ATOM      2  N   SER A   1      13.108 -16.361  27.867  0.00  0.00    -0.237 NA
ATOM      3  H   SER A   1      12.720 -15.777  28.635  0.00  0.00    +0.142 HD
ENDBRANCH   1   2
BRANCH   1   4
ATOM      4  CB  SER A   1      12.770 -14.565  26.174  0.00  0.00    +0.227 C 
ATOM      5  OG  SER A   1      12.237 -13.748  26.929  0.00  0.00    -0.287 OA
ENDBRANCH   1   4
BRANCH   1   6
ATOM      6  C   SER A   1      11.356 -16.632  26.159  0.00  0.00    +0.162 C 
BRANCH   6   7
ATOM      7  O   SER A   1      10.937 -16.192  24.881  0.00  0.00    -0.380 OA
ATOM      8  H   SER A   1      10.042 -16.565  24.682  0.00  0.00    +0.211 HD
ENDBRANCH   6   7
ENDBRANCH   1   6
TORSDOF 4
REMARK  Name = ../refined-set-2016/3umo/3umo_pocket.pdb
REMARK  226 active torsions:
REMARK  status: ('A' for Active; 'I' for Inactive)
REMARK    1  A    between atoms: _1  and  _3
REMARK    2  A    between atoms: _3  and  _4
REMARK    3  A    between atoms: _6  and  _8
REMARK    4  A    between atoms: _8  and  _9
REMARK    5  A    between atoms: _8  and  _11
REMARK    6  A    between atoms: _11  and  _12
REMARK    7  A    between atoms: _17  and  _19
REMARK    8  A    between atoms: _19  and  _20
REMARK    9  A    between atoms: _19  and  _22
REMARK   10  A    between atoms: _22  and  _23
REMARK   11  A    between atoms: _23  and  _24
REMARK   12  A    between atoms: _24  and  _25
REMARK   13  A    between atoms: _34  and  _36
REMARK   14  A    between atoms: _36  and  _37
REMARK   15  A    between atoms: _36  and  _39
REMARK   16  A    between atoms: _39  and  _40
REMARK   17  A    between atoms: _42  and  _44
REMARK   18  A    between atoms: _44  and  _45
REMARK   19  A    between atoms: _44  and  _47
REMARK   20  A    between atoms: _47  and  _48
REMARK   21  A    between atoms: _51  and  _53
REMARK   22  A    between atoms: _53  and  _54
REMARK   23  A    between atoms: _53  and  _56
REMARK   24  A    between atoms: _56  and  _57
REMARK   25  A    between atoms: _59  and  _61
REMARK   26  A    between atoms: _61  and  _62
REMARK   27  A    between atoms: _61  and  _64
REMARK   28  A    between atoms: _64  and  _65
REMARK   29  A    between atoms: _65  and  _66
REMARK   30  A    between atoms: _66  and  _67
REMARK   31  A    between atoms: _67  and  _68
REMARK   32  A    between atoms: _73  and  _74
REMARK   33  A    between atoms: _79  and  _81
REMARK   34  A    between atoms: _81  and  _82
REMARK   35  A    between atoms: _81  and  _84
REMARK   36  A    between atoms: _84  and  _85
REMARK   37  A    between atoms: _90  and  _92
REMARK   38  A    between atoms: _92  and  _93
REMARK   39  A    between atoms: _92  and  _95
REMARK   40  A    between atoms: _95  and  _96
REMARK   41  A    between atoms: _96  and  _97
REMARK   42  A    between atoms: _102  and  _104
REMARK   43  A    between atoms: _104  and  _105
REMARK   44  A    between atoms: _104  and  _107
REMARK   45  A    between atoms: _107  and  _108
REMARK   46  A    between atoms: _108  and  _109
REMARK   47  A    between atoms: _109  and  _110
REMARK   48  A    between atoms: _110  and  _111
REMARK   49  A    between atoms: _115  and  _117
REMARK   50  A    between atoms: _117  and  _118
REMARK   51  A    between atoms: _117  and  _120
REMARK   52  A    between atoms: _120  and  _121
REMARK   53  A    between atoms: _121  and  _122
REMARK   54  A    between atoms: _125  and  _127
REMARK   55  A    between atoms: _127  and  _128
REMARK   56  A    between atoms: _127  and  _130
REMARK   57  A    between atoms: _133  and  _135
REMARK   58  A    between atoms: _135  and  _136
REMARK   59  A    between atoms: _135  and  _138
REMARK   60  A    between atoms: _141  and  _143
REMARK   61  A    between atoms: _143  and  _144
REMARK   62  A    between atoms: _143  and  _146
REMARK   63  A    between atoms: _146  and  _147
REMARK   64  A    between atoms: _149  and  _151
REMARK   65  A    between atoms: _151  and  _152
REMARK   66  A    between atoms: _151  and  _154
REMARK   67  A    between atoms: _154  and  _155
REMARK   68  A    between atoms: _158  and  _160
REMARK   69  A    between atoms: _160  and  _161
REMARK   70  A    between atoms: _164  and  _165
REMARK   71  A    between atoms: _170  and  _172
REMARK   72  A    between atoms: _172  and  _173
REMARK   73  A    between atoms: _172  and  _175
REMARK   74  A    between atoms: _175  and  _176
REMARK   75  A    between atoms: _176  and  _177
REMARK   76  A    between atoms: _182  and  _184
REMARK   77  A    between atoms: _184  and  _185
REMARK   78  A    between atoms: _187  and  _189
REMARK   79  A    between atoms: _189  and  _190
REMARK   80  A    between atoms: _193  and  _195
REMARK   81  A    between atoms: _195  and  _196
REMARK   82  A    between atoms: _195  and  _198
REMARK   83  A    between atoms: _198  and  _199
REMARK   84  A    between atoms: _202  and  _204
REMARK   85  A    between atoms: _204  and  _205
REMARK   86  A    between atoms: _204  and  _207
REMARK   87  A    between atoms: _210  and  _212
REMARK   88  A    between atoms: _212  and  _213
REMARK   89  A    between atoms: _212  and  _215
REMARK   90  A    between atoms: _219  and  _220
REMARK   91  A    between atoms: _226  and  _227
REMARK   92  A    between atoms: _233  and  _234
REMARK   93  A    between atoms: _239  and  _241
REMARK   94  A    between atoms: _241  and  _242
REMARK   95  A    between atoms: _241  and  _244
REMARK   96  A    between atoms: _247  and  _249
REMARK   97  A    between atoms: _249  and  _250
REMARK   98  A    between atoms: _249  and  _252
REMARK   99  A    between atoms: _252  and  _253
REMARK  100  A    between atoms: _253  and  _254
REMARK  101  A    between atoms: _254  and  _255
REMARK  102  A    between atoms: _255  and  _256
REMARK  103  A    between atoms: _260  and  _262
REMARK  104  A    between atoms: _262  and  _263
REMARK  105  A    between atoms: _262  and  _265
REMARK  106  A    between atoms: _265  and  _266
REMARK  107  A    between atoms: _268  and  _270
REMARK  108  A    between atoms: _270  and  _271
REMARK  109  A    between atoms: _270  and  _273
REMARK  110  A    between atoms: _273  and  _274
REMARK  111  A    between atoms: _274  and  _275
REMARK  112  A    between atoms: _280  and  _282
REMARK  113  A    between atoms: _282  and  _283
REMARK  114  A    between atoms: _282  and  _285
REMARK  115  A    between atoms: _285  and  _286
REMARK  116  A    between atoms: _288  and  _290
REMARK  117  A    between atoms: _290  and  _291
REMARK  118  A    between atoms: _290  and  _293
REMARK  119  A    between atoms: _293  and  _294
REMARK  120  A    between atoms: _297  and  _299
REMARK  121  A    between atoms: _299  and  _300
REMARK  122  A    between atoms: _299  and  _302
REMARK  123  A    between atoms: _305  and  _307
REMARK  124  A    between atoms: _307  and  _308
REMARK  125  A    between atoms: _310  and  _312
REMARK  126  A    between atoms: _312  and  _313
REMARK  127  A    between atoms: _316  and  _318
REMARK  128  A    between atoms: _318  and  _319
REMARK  129  A    between atoms: _321  and  _323
REMARK  130  A    between atoms: _323  and  _324
REMARK  131  A    between atoms: _323  and  _326
REMARK  132  A    between atoms: _326  and  _327
REMARK  133  A    between atoms: _330  and  _332
REMARK  134  A    between atoms: _332  and  _333
REMARK  135  A    between atoms: _332  and  _335
REMARK  136  A    between atoms: _335  and  _336
REMARK  137  A    between atoms: _338  and  _340
REMARK  138  A    between atoms: _340  and  _341
REMARK  139  A    between atoms: _340  and  _343
REMARK  140  A    between atoms: _343  and  _344
REMARK  141  A    between atoms: _344  and  _345
REMARK  142  A    between atoms: _347  and  _349
REMARK  143  A    between atoms: _349  and  _350
REMARK  144  A    between atoms: _349  and  _352
REMARK  145  A    between atoms: _355  and  _357
REMARK  146  A    between atoms: _357  and  _358
REMARK  147  A    between atoms: _357  and  _360
REMARK  148  A    between atoms: _360  and  _361
REMARK  149  A    between atoms: _361  and  _362
REMARK  150  A    between atoms: _364  and  _366
REMARK  151  A    between atoms: _366  and  _367
REMARK  152  A    between atoms: _366  and  _369
REMARK  153  A    between atoms: _372  and  _374
REMARK  154  A    between atoms: _374  and  _375
REMARK  155  A    between atoms: _374  and  _377
REMARK  156  A    between atoms: _377  and  _378
REMARK  157  A    between atoms: _378  and  _379
REMARK  158  A    between atoms: _379  and  _380
REMARK  159  A    between atoms: _389  and  _391
REMARK  160  A    between atoms: _391  and  _392
REMARK  161  A    between atoms: _391  and  _394
REMARK  162  A    between atoms: _394  and  _395
REMARK  163  A    between atoms: _401  and  _403
REMARK  164  A    between atoms: _403  and  _404
REMARK  165  A    between atoms: _406  and  _408
REMARK  166  A    between atoms: _408  and  _409
REMARK  167  A    between atoms: _408  and  _411
REMARK  168  A    between atoms: _414  and  _416
REMARK  169  A    between atoms: _416  and  _417
REMARK  170  A    between atoms: _420  and  _422
REMARK  171  A    between atoms: _422  and  _423
REMARK  172  A    between atoms: _426  and  _428
REMARK  173  A    between atoms: _428  and  _429
REMARK  174  A    between atoms: _431  and  _433
REMARK  175  A    between atoms: _433  and  _434
REMARK  176  A    between atoms: _433  and  _436
REMARK  177  A    between atoms: _436  and  _437
REMARK  178  A    between atoms: _439  and  _441
REMARK  179  A    between atoms: _441  and  _442
REMARK  180  A    between atoms: _445  and  _447
REMARK  181  A    between atoms: _447  and  _448
REMARK  182  A    between atoms: _451  and  _453
REMARK  183  A    between atoms: _453  and  _454
REMARK  184  A    between atoms: _453  and  _456
REMARK  185  A    between atoms: _456  and  _457
REMARK  186  A    between atoms: _460  and  _462
REMARK  187  A    between atoms: _462  and  _463
REMARK  188  A    between atoms: _462  and  _465
REMARK  189  A    between atoms: _465  and  _466
REMARK  190  A    between atoms: _469  and  _471
REMARK  191  A    between atoms: _471  and  _472
REMARK  192  A    between atoms: _471  and  _474
REMARK  193  A    between atoms: _474  and  _475
REMARK  194  A    between atoms: _478  and  _480
REMARK  195  A    between atoms: _480  and  _481
REMARK  196  A    between atoms: _480  and  _483
REMARK  197  A    between atoms: _483  and  _484
REMARK  198  A    between atoms: _487  and  _489
REMARK  199  A    between atoms: _489  and  _490
REMARK  200  A    between atoms: _489  and  _492
REMARK  201  A    between atoms: _492  and  _493
REMARK  202  A    between atoms: _496  and  _498
REMARK  203  A    between atoms: _498  and  _499
REMARK  204  A    between atoms: _498  and  _501
REMARK  205  A    between atoms: _501  and  _502
REMARK  206  A    between atoms: _502  and  _503
REMARK  207  A    between atoms: _506  and  _508
REMARK  208  A    between atoms: _508  and  _509
REMARK  209  A    between atoms: _511  and  _513
REMARK  210  A    between atoms: _513  and  _514
REMARK  211  A    between atoms: _513  and  _516
REMARK  212  A    between atoms: _516  and  _517
REMARK  213  A    between atoms: _517  and  _518
REMARK  214  A    between atoms: _518  and  _519
REMARK  215  A    between atoms: _519  and  _520
REMARK  216  A    between atoms: _524  and  _526
REMARK  217  A    between atoms: _526  and  _527
REMARK  218  A    between atoms: _526  and  _529
REMARK  219  A    between atoms: _529  and  _530
REMARK  220  A    between atoms: _530  and  _531
REMARK  221  A    between atoms: _537  and  _538
REMARK  222  A    between atoms: _543  and  _545
REMARK  223  A    between atoms: _545  and  _546
REMARK  224  A    between atoms: _545  and  _548
REMARK  225  A    between atoms: _548  and  _549
REMARK  226  A    between atoms: _549  and  _550
REMARK                            x       y       z     vdW  Elec       q    Type
REMARK                         _______ _______ _______ _____ _____    ______ ____
ROOT
ATOM      1  C   ASP A   1      14.987 -17.673  23.322  0.00  0.00    +0.239 C 
ATOM      2  O   ASP A   1      14.449 -16.735  23.904  0.00  0.00    -0.274 OA
ATOM      3  N   SER A   2      16.064 -17.517  22.563  0.00  0.00    -0.296 N 
ATOM      4  H   SER A   2      16.483 -18.339  22.083  0.00  0.00    +0.150 HD
ENDROOT
BRANCH   1   5
ATOM      5  CA  ASP A   1      14.455 -19.092  23.476  0.00  0.00    +0.156 C 
BRANCH   5   6
ATOM      6  N   ASP A   1      14.820 -19.559  24.809  0.00  0.00    -0.238 NA
ATOM      7  H   ASP A   1      14.702 -18.917  25.618  0.00  0.00    +0.142 HD
ENDBRANCH   5   6
BRANCH   5   8
ATOM      8  CB  ASP A   1      12.937 -19.130  23.289  0.00  0.00    +0.140 C 
BRANCH   8   9
ATOM      9  CG  ASP A   1      12.504 -18.710  21.892  0.00  0.00    +0.367 C 
ATOM     10  OD2 ASP A   1      11.282 -18.725  21.635  0.00  0.00    -0.246 OA
ATOM     11  OD1 ASP A   1      13.372 -18.364  21.056  0.00  0.00    -0.246 OA
ENDBRANCH   8   9
ENDBRANCH   5   8
ENDBRANCH   1   5
BRANCH   3  12
ATOM     12  CA  SER A   2      16.661 -16.202  22.399  0.00  0.00    +0.166 C 
BRANCH  12  13
ATOM     13  C   SER A   2      17.393 -16.144  21.071  0.00  0.00    +0.229 C 
ATOM     14  O   SER A   2      17.160 -16.969  20.189  0.00  0.00    -0.286 OA
ENDBRANCH  12  13
BRANCH  12  15
ATOM     15  CB  SER A   2      17.614 -15.899  23.558  0.00  0.00    +0.165 C 
BRANCH  15  16
ATOM     16  OG  SER A   2      17.986 -14.531  23.573  0.00  0.00    -0.380 OA
ATOM     17  H   SER A   2      17.176 -13.971  23.675  0.00  0.00    +0.211 HD
ENDBRANCH  15  16
ENDBRANCH  12  15
ENDBRANCH   3  12
TORSDOF 8
REMARK  Name = ../refined-set-2016/3umo/3umo_pocket.pdb
REMARK  226 active torsions:
REMARK  status: ('A' for Active; 'I' for Inactive)
REMARK    1  A    between atoms: _1  and  _3
REMARK    2  A    between atoms: _3  and  _4
REMARK    3  A    between atoms: _6  and  _8
REMARK    4  A    between atoms: _8  and  _9
REMARK    5  A    between atoms: _8  and  _11
REMARK    6  A    between atoms: _11  and  _12
REMARK    7  A    between atoms: _17  and  _19
REMARK    8  A    between atoms: _19  and  _20
REMARK    9  A    between atoms: _19  and  _22
REMARK   10  A    between atoms: _22  and  _23
REMARK   11  A    between atoms: _23  and  _24
REMARK   12  A    between atoms: _24  and  _25
REMARK   13  A    between atoms: _34  and  _36
REMARK   14  A    between atoms: _36  and  _37
REMARK   15  A    between atoms: _36  and  _39
REMARK   16  A    between atoms: _39  and  _40
REMARK   17  A    between atoms: _42  and  _44
REMARK   18  A    between atoms: _44  and  _45
REMARK   19  A    between atoms: _44  and  _47
REMARK   20  A    between atoms: _47  and  _48
REMARK   21  A    between atoms: _51  and  _53
REMARK   22  A    between atoms: _53  and  _54
REMARK   23  A    between atoms: _53  and  _56
REMARK   24  A    between atoms: _56  and  _57
REMARK   25  A    between atoms: _59  and  _61
REMARK   26  A    between atoms: _61  and  _62
REMARK   27  A    between atoms: _61  and  _64
REMARK   28  A    between atoms: _64  and  _65
REMARK   29  A    between atoms: _65  and  _66
REMARK   30  A    between atoms: _66  and  _67
REMARK   31  A    between atoms: _67  and  _68
REMARK   32  A    between atoms: _73  and  _74
REMARK   33  A    between atoms: _79  and  _81
REMARK   34  A    between atoms: _81  and  _82
REMARK   35  A    between atoms: _81  and  _84
REMARK   36  A    between atoms: _84  and  _85
REMARK   37  A    between atoms: _90  and  _92
REMARK   38  A    between atoms: _92  and  _93
REMARK   39  A    between atoms: _92  and  _95
REMARK   40  A    between atoms: _95  and  _96
REMARK   41  A    between atoms: _96  and  _97
REMARK   42  A    between atoms: _102  and  _104
REMARK   43  A    between atoms: _104  and  _105
REMARK   44  A    between atoms: _104  and  _107
REMARK   45  A    between atoms: _107  and  _108
REMARK   46  A    between atoms: _108  and  _109
REMARK   47  A    between atoms: _109  and  _110
REMARK   48  A    between atoms: _110  and  _111
REMARK   49  A    between atoms: _115  and  _117
REMARK   50  A    between atoms: _117  and  _118
REMARK   51  A    between atoms: _117  and  _120
REMARK   52  A    between atoms: _120  and  _121
REMARK   53  A    between atoms: _121  and  _122
REMARK   54  A    between atoms: _125  and  _127
REMARK   55  A    between atoms: _127  and  _128
REMARK   56  A    between atoms: _127  and  _130
REMARK   57  A    between atoms: _133  and  _135
REMARK   58  A    between atoms: _135  and  _136
REMARK   59  A    between atoms: _135  and  _138
REMARK   60  A    between atoms: _141  and  _143
REMARK   61  A    between atoms: _143  and  _144
REMARK   62  A    between atoms: _143  and  _146
REMARK   63  A    between atoms: _146  and  _147
REMARK   64  A    between atoms: _149  and  _151
REMARK   65  A    between atoms: _151  and  _152
REMARK   66  A    between atoms: _151  and  _154
REMARK   67  A    between atoms: _154  and  _155
REMARK   68  A    between atoms: _158  and  _160
REMARK   69  A    between atoms: _160  and  _161
REMARK   70  A    between atoms: _164  and  _165
REMARK   71  A    between atoms: _170  and  _172
REMARK   72  A    between atoms: _172  and  _173
REMARK   73  A    between atoms: _172  and  _175
REMARK   74  A    between atoms: _175  and  _176
REMARK   75  A    between atoms: _176  and  _177
REMARK   76  A    between atoms: _182  and  _184
REMARK   77  A    between atoms: _184  and  _185
REMARK   78  A    between atoms: _187  and  _189
REMARK   79  A    between atoms: _189  and  _190
REMARK   80  A    between atoms: _193  and  _195
REMARK   81  A    between atoms: _195  and  _196
REMARK   82  A    between atoms: _195  and  _198
REMARK   83  A    between atoms: _198  and  _199
REMARK   84  A    between atoms: _202  and  _204
REMARK   85  A    between atoms: _204  and  _205
REMARK   86  A    between atoms: _204  and  _207
REMARK   87  A    between atoms: _210  and  _212
REMARK   88  A    between atoms: _212  and  _213
REMARK   89  A    between atoms: _212  and  _215
REMARK   90  A    between atoms: _219  and  _220
REMARK   91  A    between atoms: _226  and  _227
REMARK   92  A    between atoms: _233  and  _234
REMARK   93  A    between atoms: _239  and  _241
REMARK   94  A    between atoms: _241  and  _242
REMARK   95  A    between atoms: _241  and  _244
REMARK   96  A    between atoms: _247  and  _249
REMARK   97  A    between atoms: _249  and  _250
REMARK   98  A    between atoms: _249  and  _252
REMARK   99  A    between atoms: _252  and  _253
REMARK  100  A    between atoms: _253  and  _254
REMARK  101  A    between atoms: _254  and  _255
REMARK  102  A    between atoms: _255  and  _256
REMARK  103  A    between atoms: _260  and  _262
REMARK  104  A    between atoms: _262  and  _263
REMARK  105  A    between atoms: _262  and  _265
REMARK  106  A    between atoms: _265  and  _266
REMARK  107  A    between atoms: _268  and  _270
REMARK  108  A    between atoms: _270  and  _271
REMARK  109  A    between atoms: _270  and  _273
REMARK  110  A    between atoms: _273  and  _274
REMARK  111  A    between atoms: _274  and  _275
REMARK  112  A    between atoms: _280  and  _282
REMARK  113  A    between atoms: _282  and  _283
REMARK  114  A    between atoms: _282  and  _285
REMARK  115  A    between atoms: _285  and  _286
REMARK  116  A    between atoms: _288  and  _290
REMARK  117  A    between atoms: _290  and  _291
REMARK  118  A    between atoms: _290  and  _293
REMARK  119  A    between atoms: _293  and  _294
REMARK  120  A    between atoms: _297  and  _299
REMARK  121  A    between atoms: _299  and  _300
REMARK  122  A    between atoms: _299  and  _302
REMARK  123  A    between atoms: _305  and  _307
REMARK  124  A    between atoms: _307  and  _308
REMARK  125  A    between atoms: _310  and  _312
REMARK  126  A    between atoms: _312  and  _313
REMARK  127  A    between atoms: _316  and  _318
REMARK  128  A    between atoms: _318  and  _319
REMARK  129  A    between atoms: _321  and  _323
REMARK  130  A    between atoms: _323  and  _324
REMARK  131  A    between atoms: _323  and  _326
REMARK  132  A    between atoms: _326  and  _327
REMARK  133  A    between atoms: _330  and  _332
REMARK  134  A    between atoms: _332  and  _333
REMARK  135  A    between atoms: _332  and  _335
REMARK  136  A    between atoms: _335  and  _336
REMARK  137  A    between atoms: _338  and  _340
REMARK  138  A    between atoms: _340  and  _341
REMARK  139  A    between atoms: _340  and  _343
REMARK  140  A    between atoms: _343  and  _344
REMARK  141  A    between atoms: _344  and  _345
REMARK  142  A    between atoms: _347  and  _349
REMARK  143  A    between atoms: _349  and  _350
REMARK  144  A    between atoms: _349  and  _352
REMARK  145  A    between atoms: _355  and  _357
REMARK  146  A    between atoms: _357  and  _358
REMARK  147  A    between atoms: _357  and  _360
REMARK  148  A    between atoms: _360  and  _361
REMARK  149  A    between atoms: _361  and  _362
REMARK  150  A    between atoms: _364  and  _366
REMARK  151  A    between atoms: _366  and  _367
REMARK  152  A    between atoms: _366  and  _369
REMARK  153  A    between atoms: _372  and  _374
REMARK  154  A    between atoms: _374  and  _375
REMARK  155  A    between atoms: _374  and  _377
REMARK  156  A    between atoms: _377  and  _378
REMARK  157  A    between atoms: _378  and  _379
REMARK  158  A    between atoms: _379  and  _380
REMARK  159  A    between atoms: _389  and  _391
REMARK  160  A    between atoms: _391  and  _392
REMARK  161  A    between atoms: _391  and  _394
REMARK  162  A    between atoms: _394  and  _395
REMARK  163  A    between atoms: _401  and  _403
REMARK  164  A    between atoms: _403  and  _404
REMARK  165  A    between atoms: _406  and  _408
REMARK  166  A    between atoms: _408  and  _409
REMARK  167  A    between atoms: _408  and  _411
REMARK  168  A    between atoms: _414  and  _416
REMARK  169  A    between atoms: _416  and  _417
REMARK  170  A    between atoms: _420  and  _422
REMARK  171  A    between atoms: _422  and  _423
REMARK  172  A    between atoms: _426  and  _428
REMARK  173  A    between atoms: _428  and  _429
REMARK  174  A    between atoms: _431  and  _433
REMARK  175  A    between atoms: _433  and  _434
REMARK  176  A    between atoms: _433  and  _436
REMARK  177  A    between atoms: _436  and  _437
REMARK  178  A    between atoms: _439  and  _441
REMARK  179  A    between atoms: _441  and  _442
REMARK  180  A    between atoms: _445  and  _447
REMARK  181  A    between atoms: _447  and  _448
REMARK  182  A    between atoms: _451  and  _453
REMARK  183  A    between atoms: _453  and  _454
REMARK  184  A    between atoms: _453  and  _456
REMARK  185  A    between atoms: _456  and  _457
REMARK  186  A    between atoms: _460  and  _462
REMARK  187  A    between atoms: _462  and  _463
REMARK  188  A    between atoms: _462  and  _465
REMARK  189  A    between atoms: _465  and  _466
REMARK  190  A    between atoms: _469  and  _471
REMARK  191  A    between atoms: _471  and  _472
REMARK  192  A    between atoms: _471  and  _474
REMARK  193  A    between atoms: _474  and  _475
REMARK  194  A    between atoms: _478  and  _480
REMARK  195  A    between atoms: _480  and  _481
REMARK  196  A    between atoms: _480  and  _483
REMARK  197  A    between atoms: _483  and  _484
REMARK  198  A    between atoms: _487  and  _489
REMARK  199  A    between atoms: _489  and  _490
REMARK  200  A    between atoms: _489  and  _492
REMARK  201  A    between atoms: _492  and  _493
REMARK  202  A    between atoms: _496  and  _498
REMARK  203  A    between atoms: _498  and  _499
REMARK  204  A    between atoms: _498  and  _501
REMARK  205  A    between atoms: _501  and  _502
REMARK  206  A    between atoms: _502  and  _503
REMARK  207  A    between atoms: _506  and  _508
REMARK  208  A    between atoms: _508  and  _509
REMARK  209  A    between atoms: _511  and  _513
REMARK  210  A    between atoms: _513  and  _514
REMARK  211  A    between atoms: _513  and  _516
REMARK  212  A    between atoms: _516  and  _517
REMARK  213  A    between atoms: _517  and  _518
REMARK  214  A    between atoms: _518  and  _519
REMARK  215  A    between atoms: _519  and  _520
REMARK  216  A    between atoms: _524  and  _526
REMARK  217  A    between atoms: _526  and  _527
REMARK  218  A    between atoms: _526  and  _529
REMARK  219  A    between atoms: _529  and  _530
REMARK  220  A    between atoms: _530  and  _531
REMARK  221  A    between atoms: _537  and  _538
REMARK  222  A    between atoms: _543  and  _545
REMARK  223  A    between atoms: _545  and  _546
REMARK  224  A    between atoms: _545  and  _548
REMARK  225  A    between atoms: _548  and  _549
REMARK  226  A    between atoms: _549  and  _550
REMARK                            x       y       z     vdW  Elec       q    Type
REMARK                         _______ _______ _______ _____ _____    ______ ____
ROOT
ATOM      1  C   ASN A   3      15.535 -21.095  13.597  0.00  0.00    +0.241 C 
ATOM      2  O   ASN A   3      16.657 -21.293  14.074  0.00  0.00    -0.273 OA
ATOM      3  N   GLN A   4      15.308 -21.088  12.289  0.00  0.00    -0.297 N 
ATOM      4  H   GLN A   4      14.362 -20.856  11.925  0.00  0.00    +0.150 HD
ENDROOT
BRANCH   3   5
ATOM      5  CA  GLN A   4      16.394 -21.408  11.361  0.00  0.00    +0.149 C 
BRANCH   5   6
ATOM      6  C   GLN A   4      17.514 -20.388  11.384  0.00  0.00    +0.241 C 
ATOM      7  N   LYS A   5      17.147 -19.115  11.416  0.00  0.00    -0.297 N 
ATOM      8  H   LYS A   5      16.137 -18.869  11.423  0.00  0.00    +0.150 HD
ATOM      9  O   GLN A   4      18.698 -20.749  11.381  0.00  0.00    -0.273 OA
BRANCH   7  10
ATOM     10  CA  LYS A   5      18.148 -18.059  11.441  0.00  0.00    +0.149 C 
BRANCH  10  11
ATOM     11  C   LYS A   5      18.940 -18.106  12.744  0.00  0.00    +0.241 C 
ATOM     12  N   GLU A   6      18.235 -18.321  13.847  0.00  0.00    -0.298 N 
ATOM     13  H   GLU A   6      17.202 -18.423  13.776  0.00  0.00    +0.150 HD
ATOM     14  O   LYS A   5      20.162 -17.961  12.742  0.00  0.00    -0.273 OA
BRANCH  12  15
ATOM     15  CA  GLU A   6      18.872 -18.419  15.160  0.00  0.00    +0.137 C 
BRANCH  15  16
ATOM     16  C   GLU A   6      19.807 -19.633  15.261  0.00  0.00    +0.227 C 
ATOM     17  O   GLU A   6      20.866 -19.548  15.888  0.00  0.00    -0.286 OA
ENDBRANCH  15  16
BRANCH  15  18
ATOM     18  CB  GLU A   6      17.810 -18.413  16.271  0.00  0.00    +0.039 C 
BRANCH  18  19
ATOM     19  CG  GLU A   6      17.137 -17.038  16.458  0.00  0.00    +0.116 C 
BRANCH  19  20
ATOM     20  CD  GLU A   6      15.729 -17.119  17.030  0.00  0.00    +0.365 C 
ATOM     21  OE2 GLU A   6      15.267 -18.237  17.345  0.00  0.00    -0.246 OA
ATOM     22  OE1 GLU A   6      15.077 -16.054  17.160  0.00  0.00    -0.246 OA
ENDBRANCH  19  20
ENDBRANCH  18  19
ENDBRANCH  15  18
ENDBRANCH  12  15
ENDBRANCH  10  11
BRANCH  10  23
ATOM     23  CB  LYS A   5      17.500 -16.686  11.248  0.00  0.00    +0.029 C 
BRANCH  23  24
ATOM     24  CG  LYS A   5      17.176 -16.370   9.797  0.00  0.00    +0.000 C 
BRANCH  24  25
ATOM     25  CD  LYS A   5      16.844 -14.900   9.598  0.00  0.00    -0.024 C 
BRANCH  25  26
ATOM     26  CE  LYS A   5      16.285 -14.659   8.204  0.00  0.00    -0.086 C 
BRANCH  26  27
ATOM     27  NZ  LYS A   5      15.964 -13.225   7.973  0.00  0.00    +0.380 N 
ATOM     28  HZ1 LYS A   5      15.254 -12.914   8.667  0.00  0.00    -0.089 HD
ATOM     29  HZ2 LYS A   5      16.828 -12.656   8.080  0.00  0.00    -0.089 HD
ATOM     30  HZ3 LYS A   5      15.586 -13.106   7.011  0.00  0.00    -0.089 HD
ENDBRANCH  26  27
ENDBRANCH  25  26
ENDBRANCH  24  25
ENDBRANCH  23  24
ENDBRANCH  10  23
ENDBRANCH   7  10
ENDBRANCH   5   6
BRANCH   5  31
ATOM     31  CB  GLN A   4      15.863 -21.576   9.944  0.00  0.00    +0.039 C 
BRANCH  31  32
ATOM     32  CG  GLN A   4      15.021 -22.809   9.797  0.00  0.00    +0.087 C 
BRANCH  32  33
ATOM     33  CD  GLN A   4      14.202 -22.781   8.539  0.00  0.00    +0.219 C 
ATOM     34  OE1 GLN A   4      13.085 -22.262   8.532  0.00  0.00    -0.275 OA
ATOM     35  NE2 GLN A   4      14.756 -23.321   7.456  0.00  0.00    -0.329 N 
ATOM     36 HE21 GLN A   4      15.703 -23.747   7.514  0.00  0.00    +0.145 HD
ATOM     37 HE22 GLN A   4      14.242 -23.317   6.552  0.00  0.00    +0.145 HD
ENDBRANCH  32  33
ENDBRANCH  31  32
ENDBRANCH   5  31
ENDBRANCH   3   5
BRANCH   1  38
ATOM     38  CA  ASN A   3      14.343 -20.864  14.518  0.00  0.00    +0.158 C 
BRANCH  38  41
ATOM     39  C   PRO A   2      15.124 -21.856  16.560  0.00  0.00    +0.241 C 
ATOM     40  O   PRO A   2      14.706 -22.967  16.217  0.00  0.00    -0.273 OA
ATOM     41  N   ASN A   3      14.829 -20.746  15.895  0.00  0.00    -0.297 N 
ATOM     42  H   ASN A   3      14.940 -19.813  16.341  0.00  0.00    +0.150 HD
BRANCH  39  49
ATOM     43  C   LYS A   1      14.540 -22.411  19.505  0.00  0.00    +0.241 C 
ATOM     44  O   LYS A   1      13.976 -21.314  19.431  0.00  0.00    -0.273 OA
ATOM     45  N   PRO A   2      15.636 -22.699  18.797  0.00  0.00    -0.272 N 
ATOM     46  CD  PRO A   2      16.528 -23.874  18.826  0.00  0.00    +0.094 C 
ATOM     47  CG  PRO A   2      17.457 -23.640  17.647  0.00  0.00    +0.024 C 
ATOM     48  CB  PRO A   2      17.441 -22.143  17.414  0.00  0.00    +0.031 C 
ATOM     49  CA  PRO A   2      16.019 -21.720  17.785  0.00  0.00    +0.152 C 
BRANCH  43  50
ATOM     50  CA  LYS A   1      14.009 -23.508  20.425  0.00  0.00    +0.145 C 
BRANCH  50  51
ATOM     51  N   LYS A   1      14.773 -23.615  21.672  0.00  0.00    -0.238 NA
ATOM     52  H   LYS A   1      14.829 -22.794  22.308  0.00  0.00    +0.142 HD
ENDBRANCH  50  51
BRANCH  50  53
ATOM     53  CB  LYS A   1      12.491 -23.300  20.647  0.00  0.00    +0.026 C 
BRANCH  53  54
ATOM     54  CG  LYS A   1      11.697 -23.425  19.313  0.00  0.00    -0.000 C 
BRANCH  54  55
ATOM     55  CD  LYS A   1      10.423 -22.586  19.237  0.00  0.00    -0.024 C 
BRANCH  55  56
ATOM     56  CE  LYS A   1      10.707 -21.080  19.132  0.00  0.00    -0.086 C 
BRANCH  56  57
ATOM     57  NZ  LYS A   1      11.583 -20.721  17.975  0.00  0.00    +0.380 N 
ATOM     58  HZ1 LYS A   1      12.498 -21.206  18.071  0.00  0.00    -0.089 HD
ATOM     59  HZ2 LYS A   1      11.735 -19.692  17.963  0.00  0.00    -0.089 HD
ATOM     60  HZ3 LYS A   1      11.124 -21.016  17.090  0.00  0.00    -0.089 HD
ENDBRANCH  56  57
ENDBRANCH  55  56
ENDBRANCH  54  55
ENDBRANCH  53  54
ENDBRANCH  50  53
ENDBRANCH  43  50
ENDBRANCH  39  49
ENDBRANCH  38  41
BRANCH  38  61
ATOM     61  CB  ASN A   3      13.484 -19.671  14.065  0.00  0.00    +0.114 C 
BRANCH  61  62
ATOM     62  CG  ASN A   3      14.250 -18.360  14.015  0.00  0.00    +0.222 C 
ATOM     63  OD1 ASN A   3      15.484 -18.324  14.010  0.00  0.00    -0.275 OA
ATOM     64  ND2 ASN A   3      13.502 -17.259  13.966  0.00  0.00    -0.329 N 
ATOM     65 HD21 ASN A   3      12.465 -17.334  13.972  0.00  0.00    +0.145 HD
ATOM     66 HD22 ASN A   3      13.955 -16.324  13.921  0.00  0.00    +0.145 HD
ENDBRANCH  61  62
ENDBRANCH  38  61
ENDBRANCH   1  38
TORSDOF 29
REMARK  Name = ../refined-set-2016/3umo/3umo_pocket.pdb
REMARK  226 active torsions:
REMARK  status: ('A' for Active; 'I' for Inactive)
REMARK    1  A    between atoms: _1  and  _3
REMARK    2  A    between atoms: _3  and  _4
REMARK    3  A    between atoms: _6  and  _8
REMARK    4  A    between atoms: _8  and  _9
REMARK    5  A    between atoms: _8  and  _11
REMARK    6  A    between atoms: _11  and  _12
REMARK    7  A    between atoms: _17  and  _19
REMARK    8  A    between atoms: _19  and  _20
REMARK    9  A    between atoms: _19  and  _22
REMARK   10  A    between atoms: _22  and  _23
REMARK   11  A    between atoms: _23  and  _24
REMARK   12  A    between atoms: _24  and  _25
REMARK   13  A    between atoms: _34  and  _36
REMARK   14  A    between atoms: _36  and  _37
REMARK   15  A    between atoms: _36  and  _39
REMARK   16  A    between atoms: _39  and  _40
REMARK   17  A    between atoms: _42  and  _44
REMARK   18  A    between atoms: _44  and  _45
REMARK   19  A    between atoms: _44  and  _47
REMARK   20  A    between atoms: _47  and  _48
REMARK   21  A    between atoms: _51  and  _53
REMARK   22  A    between atoms: _53  and  _54
REMARK   23  A    between atoms: _53  and  _56
REMARK   24  A    between atoms: _56  and  _57
REMARK   25  A    between atoms: _59  and  _61
REMARK   26  A    between atoms: _61  and  _62
REMARK   27  A    between atoms: _61  and  _64
REMARK   28  A    between atoms: _64  and  _65
REMARK   29  A    between atoms: _65  and  _66
REMARK   30  A    between atoms: _66  and  _67
REMARK   31  A    between atoms: _67  and  _68
REMARK   32  A    between atoms: _73  and  _74
REMARK   33  A    between atoms: _79  and  _81
REMARK   34  A    between atoms: _81  and  _82
REMARK   35  A    between atoms: _81  and  _84
REMARK   36  A    between atoms: _84  and  _85
REMARK   37  A    between atoms: _90  and  _92
REMARK   38  A    between atoms: _92  and  _93
REMARK   39  A    between atoms: _92  and  _95
REMARK   40  A    between atoms: _95  and  _96
REMARK   41  A    between atoms: _96  and  _97
REMARK   42  A    between atoms: _102  and  _104
REMARK   43  A    between atoms: _104  and  _105
REMARK   44  A    between atoms: _104  and  _107
REMARK   45  A    between atoms: _107  and  _108
REMARK   46  A    between atoms: _108  and  _109
REMARK   47  A    between atoms: _109  and  _110
REMARK   48  A    between atoms: _110  and  _111
REMARK   49  A    between atoms: _115  and  _117
REMARK   50  A    between atoms: _117  and  _118
REMARK   51  A    between atoms: _117  and  _120
REMARK   52  A    between atoms: _120  and  _121
REMARK   53  A    between atoms: _121  and  _122
REMARK   54  A    between atoms: _125  and  _127
REMARK   55  A    between atoms: _127  and  _128
REMARK   56  A    between atoms: _127  and  _130
REMARK   57  A    between atoms: _133  and  _135
REMARK   58  A    between atoms: _135  and  _136
REMARK   59  A    between atoms: _135  and  _138
REMARK   60  A    between atoms: _141  and  _143
REMARK   61  A    between atoms: _143  and  _144
REMARK   62  A    between atoms: _143  and  _146
REMARK   63  A    between atoms: _146  and  _147
REMARK   64  A    between atoms: _149  and  _151
REMARK   65  A    between atoms: _151  and  _152
REMARK   66  A    between atoms: _151  and  _154
REMARK   67  A    between atoms: _154  and  _155
REMARK   68  A    between atoms: _158  and  _160
REMARK   69  A    between atoms: _160  and  _161
REMARK   70  A    between atoms: _164  and  _165
REMARK   71  A    between atoms: _170  and  _172
REMARK   72  A    between atoms: _172  and  _173
REMARK   73  A    between atoms: _172  and  _175
REMARK   74  A    between atoms: _175  and  _176
REMARK   75  A    between atoms: _176  and  _177
REMARK   76  A    between atoms: _182  and  _184
REMARK   77  A    between atoms: _184  and  _185
REMARK   78  A    between atoms: _187  and  _189
REMARK   79  A    between atoms: _189  and  _190
REMARK   80  A    between atoms: _193  and  _195
REMARK   81  A    between atoms: _195  and  _196
REMARK   82  A    between atoms: _195  and  _198
REMARK   83  A    between atoms: _198  and  _199
REMARK   84  A    between atoms: _202  and  _204
REMARK   85  A    between atoms: _204  and  _205
REMARK   86  A    between atoms: _204  and  _207
REMARK   87  A    between atoms: _210  and  _212
REMARK   88  A    between atoms: _212  and  _213
REMARK   89  A    between atoms: _212  and  _215
REMARK   90  A    between atoms: _219  and  _220
REMARK   91  A    between atoms: _226  and  _227
REMARK   92  A    between atoms: _233  and  _234
REMARK   93  A    between atoms: _239  and  _241
REMARK   94  A    between atoms: _241  and  _242
REMARK   95  A    between atoms: _241  and  _244
REMARK   96  A    between atoms: _247  and  _249
REMARK   97  A    between atoms: _249  and  _250
REMARK   98  A    between atoms: _249  and  _252
REMARK   99  A    between atoms: _252  and  _253
REMARK  100  A    between atoms: _253  and  _254
REMARK  101  A    between atoms: _254  and  _255
REMARK  102  A    between atoms: _255  and  _256
REMARK  103  A    between atoms: _260  and  _262
REMARK  104  A    between atoms: _262  and  _263
REMARK  105  A    between atoms: _262  and  _265
REMARK  106  A    between atoms: _265  and  _266
REMARK  107  A    between atoms: _268  and  _270
REMARK  108  A    between atoms: _270  and  _271
REMARK  109  A    between atoms: _270  and  _273
REMARK  110  A    between atoms: _273  and  _274
REMARK  111  A    between atoms: _274  and  _275
REMARK  112  A    between atoms: _280  and  _282
REMARK  113  A    between atoms: _282  and  _283
REMARK  114  A    between atoms: _282  and  _285
REMARK  115  A    between atoms: _285  and  _286
REMARK  116  A    between atoms: _288  and  _290
REMARK  117  A    between atoms: _290  and  _291
REMARK  118  A    between atoms: _290  and  _293
REMARK  119  A    between atoms: _293  and  _294
REMARK  120  A    between atoms: _297  and  _299
REMARK  121  A    between atoms: _299  and  _300
REMARK  122  A    between atoms: _299  and  _302
REMARK  123  A    between atoms: _305  and  _307
REMARK  124  A    between atoms: _307  and  _308
REMARK  125  A    between atoms: _310  and  _312
REMARK  126  A    between atoms: _312  and  _313
REMARK  127  A    between atoms: _316  and  _318
REMARK  128  A    between atoms: _318  and  _319
REMARK  129  A    between atoms: _321  and  _323
REMARK  130  A    between atoms: _323  and  _324
REMARK  131  A    between atoms: _323  and  _326
REMARK  132  A    between atoms: _326  and  _327
REMARK  133  A    between atoms: _330  and  _332
REMARK  134  A    between atoms: _332  and  _333
REMARK  135  A    between atoms: _332  and  _335
REMARK  136  A    between atoms: _335  and  _336
REMARK  137  A    between atoms: _338  and  _340
REMARK  138  A    between atoms: _340  and  _341
REMARK  139  A    between atoms: _340  and  _343
REMARK  140  A    between atoms: _343  and  _344
REMARK  141  A    between atoms: _344  and  _345
REMARK  142  A    between atoms: _347  and  _349
REMARK  143  A    between atoms: _349  and  _350
REMARK  144  A    between atoms: _349  and  _352
REMARK  145  A    between atoms: _355  and  _357
REMARK  146  A    between atoms: _357  and  _358
REMARK  147  A    between atoms: _357  and  _360
REMARK  148  A    between atoms: _360  and  _361
REMARK  149  A    between atoms: _361  and  _362
REMARK  150  A    between atoms: _364  and  _366
REMARK  151  A    between atoms: _366  and  _367
REMARK  152  A    between atoms: _366  and  _369
REMARK  153  A    between atoms: _372  and  _374
REMARK  154  A    between atoms: _374  and  _375
REMARK  155  A    between atoms: _374  and  _377
REMARK  156  A    between atoms: _377  and  _378
REMARK  157  A    between atoms: _378  and  _379
REMARK  158  A    between atoms: _379  and  _380
REMARK  159  A    between atoms: _389  and  _391
REMARK  160  A    between atoms: _391  and  _392
REMARK  161  A    between atoms: _391  and  _394
REMARK  162  A    between atoms: _394  and  _395
REMARK  163  A    between atoms: _401  and  _403
REMARK  164  A    between atoms: _403  and  _404
REMARK  165  A    between atoms: _406  and  _408
REMARK  166  A    between atoms: _408  and  _409
REMARK  167  A    between atoms: _408  and  _411
REMARK  168  A    between atoms: _414  and  _416
REMARK  169  A    between atoms: _416  and  _417
REMARK  170  A    between atoms: _420  and  _422
REMARK  171  A    between atoms: _422  and  _423
REMARK  172  A    between atoms: _426  and  _428
REMARK  173  A    between atoms: _428  and  _429
REMARK  174  A    between atoms: _431  and  _433
REMARK  175  A    between atoms: _433  and  _434
REMARK  176  A    between atoms: _433  and  _436
REMARK  177  A    between atoms: _436  and  _437
REMARK  178  A    between atoms: _439  and  _441
REMARK  179  A    between atoms: _441  and  _442
REMARK  180  A    between atoms: _445  and  _447
REMARK  181  A    between atoms: _447  and  _448
REMARK  182  A    between atoms: _451  and  _453
REMARK  183  A    between atoms: _453  and  _454
REMARK  184  A    between atoms: _453  and  _456
REMARK  185  A    between atoms: _456  and  _457
REMARK  186  A    between atoms: _460  and  _462
REMARK  187  A    between atoms: _462  and  _463
REMARK  188  A    between atoms: _462  and  _465
REMARK  189  A    between atoms: _465  and  _466
REMARK  190  A    between atoms: _469  and  _471
REMARK  191  A    between atoms: _471  and  _472
REMARK  192  A    between atoms: _471  and  _474
REMARK  193  A    between atoms: _474  and  _475
REMARK  194  A    between atoms: _478  and  _480
REMARK  195  A    between atoms: _480  and  _481
REMARK  196  A    between atoms: _480  and  _483
REMARK  197  A    between atoms: _483  and  _484
REMARK  198  A    between atoms: _487  and  _489
REMARK  199  A    between atoms: _489  and  _490
REMARK  200  A    between atoms: _489  and  _492
REMARK  201  A    between atoms: _492  and  _493
REMARK  202  A    between atoms: _496  and  _498
REMARK  203  A    between atoms: _498  and  _499
REMARK  204  A    between atoms: _498  and  _501
REMARK  205  A    between atoms: _501  and  _502
REMARK  206  A    between atoms: _502  and  _503
REMARK  207  A    between atoms: _506  and  _508
REMARK  208  A    between atoms: _508  and  _509
REMARK  209  A    between atoms: _511  and  _513
REMARK  210  A    between atoms: _513  and  _514
REMARK  211  A    between atoms: _513  and  _516
REMARK  212  A    between atoms: _516  and  _517
REMARK  213  A    between atoms: _517  and  _518
REMARK  214  A    between atoms: _518  and  _519
REMARK  215  A    between atoms: _519  and  _520
REMARK  216  A    between atoms: _524  and  _526
REMARK  217  A    between atoms: _526  and  _527
REMARK  218  A    between atoms: _526  and  _529
REMARK  219  A    between atoms: _529  and  _530
REMARK  220  A    between atoms: _530  and  _531
REMARK  221  A    between atoms: _537  and  _538
REMARK  222  A    between atoms: _543  and  _545
REMARK  223  A    between atoms: _545  and  _546
REMARK  224  A    between atoms: _545  and  _548
REMARK  225  A    between atoms: _548  and  _549
REMARK  226  A    between atoms: _549  and  _550
REMARK                            x       y       z     vdW  Elec       q    Type
REMARK                         _______ _______ _______ _____ _____    ______ ____
ROOT
ATOM      1  C   GLY A   5       6.792 -22.420   9.690  0.00  0.00    +0.246 C 
ATOM      2  O   GLY A   5       6.357 -23.314  10.409  0.00  0.00    -0.273 OA
ATOM      3  N   PRO A   6       6.356 -22.225   8.430  0.00  0.00    -0.272 N 
ATOM      4  CA  PRO A   6       5.272 -23.057   7.886  0.00  0.00    +0.152 C 
ATOM      5  CB  PRO A   6       4.982 -22.412   6.523  0.00  0.00    +0.031 C 
ATOM      6  CG  PRO A   6       6.263 -21.762   6.132  0.00  0.00    +0.024 C 
ATOM      7  CD  PRO A   6       6.889 -21.283   7.427  0.00  0.00    +0.094 C 
ENDROOT
BRANCH   4   8
ATOM      8  C   PRO A   6       5.665 -24.525   7.707  0.00  0.00    +0.241 C 
ATOM      9  N   GLN A   7       6.957 -24.829   7.766  0.00  0.00    -0.297 N 
ATOM     10  H   GLN A   7       7.663 -24.076   7.893  0.00  0.00    +0.150 HD
ATOM     11  O   PRO A   6       4.799 -25.381   7.530  0.00  0.00    -0.273 OA
BRANCH   9  12
ATOM     12  CA  GLN A   7       7.388 -26.223   7.652  0.00  0.00    +0.149 C 
BRANCH  12  13
ATOM     13  C   GLN A   7       7.291 -26.997   8.967  0.00  0.00    +0.241 C 
ATOM     14  N   GLY A   8       6.871 -26.315  10.030  0.00  0.00    -0.295 N 
ATOM     15  H   GLY A   8       6.658 -25.301   9.936  0.00  0.00    +0.150 HD
ATOM     16  O   GLN A   7       7.575 -28.202   9.018  0.00  0.00    -0.273 OA
BRANCH  14  17
ATOM     17  CA  GLY A   8       6.705 -26.962  11.317  0.00  0.00    +0.176 C 
BRANCH  17  18
ATOM     18  C   GLY A   8       7.959 -26.928  12.166  0.00  0.00    +0.243 C 
ATOM     19  N   ALA A   9       8.425 -28.097  12.584  0.00  0.00    -0.297 N 
ATOM     20  H   ALA A   9       7.954 -28.981  12.305  0.00  0.00    +0.150 HD
ATOM     21  O   GLY A   8       8.502 -25.865  12.454  0.00  0.00    -0.273 OA
BRANCH  19  22
ATOM     22  CA  ALA A   9       9.602 -28.128  13.437  0.00  0.00    +0.149 C 
ATOM     23  CB  ALA A   9       9.229 -27.796  14.882  0.00  0.00    +0.031 C 
BRANCH  22  24
ATOM     24  C   ALA A   9      10.342 -29.449  13.365  0.00  0.00    +0.241 C 
ATOM     25  N   LEU A  10      11.630 -29.385  13.677  0.00  0.00    -0.298 N 
ATOM     26  H   LEU A  10      12.070 -28.457  13.838  0.00  0.00    +0.150 HD
ATOM     27  O   ALA A   9       9.771 -30.497  13.039  0.00  0.00    -0.273 OA
BRANCH  25  28
ATOM     28  CA  LEU A  10      12.440 -30.590  13.798  0.00  0.00    +0.137 C 
BRANCH  28  29
ATOM     29  C   LEU A  10      12.911 -30.702  15.244  0.00  0.00    +0.227 C 
ATOM     30  O   LEU A  10      13.583 -29.805  15.761  0.00  0.00    -0.286 OA
ENDBRANCH  28  29
BRANCH  28  31
ATOM     31  CB  LEU A  10      13.637 -30.527  12.854  0.00  0.00    +0.028 C 
BRANCH  31  32
ATOM     32  CG  LEU A  10      14.488 -31.798  12.809  0.00  0.00    +0.002 C 
ATOM     33  CD2 LEU A  10      15.948 -31.472  13.029  0.00  0.00    +0.000 C 
ATOM     34  CD1 LEU A  10      14.283 -32.514  11.486  0.00  0.00    +0.000 C 
ENDBRANCH  31  32
ENDBRANCH  28  31
ENDBRANCH  25  28
ENDBRANCH  22  24
ENDBRANCH  19  22
ENDBRANCH  17  18
ENDBRANCH  14  17
ENDBRANCH  12  13
BRANCH  12  35
ATOM     35  CB  GLN A   7       8.804 -26.296   7.058  0.00  0.00    +0.039 C 
BRANCH  35  36
ATOM     36  CG  GLN A   7       8.812 -25.962   5.582  0.00  0.00    +0.087 C 
BRANCH  36  37
ATOM     37  CD  GLN A   7      10.194 -25.855   4.994  0.00  0.00    +0.219 C 
ATOM     38  OE1 GLN A   7      11.189 -25.819   5.720  0.00  0.00    -0.275 OA
ATOM     39  NE2 GLN A   7      10.266 -25.793   3.667  0.00  0.00    -0.329 N 
ATOM     40 HE21 GLN A   7      11.191 -25.710   3.200  0.00  0.00    +0.145 HD
ATOM     41 HE22 GLN A   7       9.397 -25.827   3.097  0.00  0.00    +0.145 HD
ENDBRANCH  36  37
ENDBRANCH  35  36
ENDBRANCH  12  35
ENDBRANCH   9  12
ENDBRANCH   4   8
BRANCH   1  42
ATOM     42  CA  GLY A   5       7.902 -21.511  10.203  0.00  0.00    +0.176 C 
BRANCH  42  44
ATOM     43  C   LEU A   4       9.633 -23.195   9.993  0.00  0.00    +0.241 C 
ATOM     44  N   GLY A   5       9.001 -22.299  10.748  0.00  0.00    -0.295 N 
ATOM     45  H   GLY A   5       9.294 -22.160  11.736  0.00  0.00    +0.150 HD
ATOM     46  O   LEU A   4       9.339 -23.398   8.810  0.00  0.00    -0.273 OA
BRANCH  43  47
ATOM     47  CA  LEU A   4      10.769 -23.979  10.652  0.00  0.00    +0.149 C 
BRANCH  47  50
ATOM     48  C   SER A   3      11.437 -23.755  12.993  0.00  0.00    +0.243 C 
ATOM     49  O   SER A   3      12.391 -23.012  12.731  0.00  0.00    -0.273 OA
ATOM     50  N   LEU A   4      10.558 -24.155  12.082  0.00  0.00    -0.297 N 
ATOM     51  H   LEU A   4       9.682 -24.613  12.403  0.00  0.00    +0.150 HD
BRANCH  48  52
ATOM     52  CA  SER A   3      11.220 -24.308  14.408  0.00  0.00    +0.178 C 
BRANCH  52  54
ATOM     53  C   VAL A   2      13.038 -25.830  14.778  0.00  0.00    +0.241 C 
ATOM     54  N   SER A   3      12.509 -24.637  15.007  0.00  0.00    -0.295 N 
ATOM     55  H   SER A   3      13.005 -23.946  15.605  0.00  0.00    +0.150 HD
ATOM     56  O   VAL A   2      12.477 -26.674  14.079  0.00  0.00    -0.273 OA
BRANCH  53  57
ATOM     57  CA  VAL A   2      14.384 -26.118  15.426  0.00  0.00    +0.148 C 
BRANCH  57  60
ATOM     58  C   VAL A   1      13.848 -26.875  17.654  0.00  0.00    +0.238 C 
ATOM     59  O   VAL A   1      13.742 -25.721  18.066  0.00  0.00    -0.274 OA
ATOM     60  N   VAL A   2      14.199 -27.171  16.408  0.00  0.00    -0.297 N 
ATOM     61  H   VAL A   2      14.342 -28.164  16.134  0.00  0.00    +0.150 HD
BRANCH  58  62
ATOM     62  CA  VAL A   1      13.610 -28.049  18.585  0.00  0.00    +0.145 C 
BRANCH  62  63
ATOM     63  CB  VAL A   1      12.237 -27.934  19.278  0.00  0.00    +0.025 C 
ATOM     64  CG2 VAL A   1      12.010 -29.145  20.172  0.00  0.00    +0.002 C 
ATOM     65  CG1 VAL A   1      11.116 -27.820  18.241  0.00  0.00    +0.002 C 
ENDBRANCH  62  63
BRANCH  62  66
ATOM     66  N   VAL A   1      14.695 -28.083  19.545  0.00  0.00    -0.238 NA
ATOM     67  H   VAL A   1      14.805 -27.315  20.237  0.00  0.00    +0.142 HD
ENDBRANCH  62  66
ENDBRANCH  58  62
ENDBRANCH  57  60
BRANCH  57  68
ATOM     68  CB  VAL A   2      15.380 -26.511  14.333  0.00  0.00    +0.027 C 
ATOM     69  CG2 VAL A   2      16.661 -27.053  14.952  0.00  0.00    +0.002 C 
ATOM     70  CG1 VAL A   2      15.682 -25.299  13.453  0.00  0.00    +0.002 C 
ENDBRANCH  57  68
ENDBRANCH  53  57
ENDBRANCH  52  54
BRANCH  52  71
ATOM     71  CB  SER A   3      10.407 -23.374  15.306  0.00  0.00    +0.166 C 
BRANCH  71  72
ATOM     72  OG  SER A   3      11.006 -22.090  15.460  0.00  0.00    -0.380 OA
ATOM     73  H   SER A   3      11.090 -21.658  14.573  0.00  0.00    +0.211 HD
ENDBRANCH  71  72
ENDBRANCH  52  71
ENDBRANCH  48  52
ENDBRANCH  47  50
BRANCH  47  74
ATOM     74  CB  LEU A   4      10.864 -25.356  10.002  0.00  0.00    +0.029 C 
BRANCH  74  75
ATOM     75  CG  LEU A   4      11.906 -26.309  10.593  0.00  0.00    +0.002 C 
ATOM     76  CD2 LEU A   4      13.300 -25.742  10.429  0.00  0.00    +0.000 C 
ATOM     77  CD1 LEU A   4      11.809 -27.692   9.951  0.00  0.00    +0.000 C 
ENDBRANCH  74  75
ENDBRANCH  47  74
ENDBRANCH  43  47
ENDBRANCH  42  44
ENDBRANCH   1  42
TORSDOF 30
REMARK  Name = ../refined-set-2016/3umo/3umo_pocket.pdb
REMARK  226 active torsions:
REMARK  status: ('A' for Active; 'I' for Inactive)
REMARK    1  A    between atoms: _1  and  _3
REMARK    2  A    between atoms: _3  and  _4
REMARK    3  A    between atoms: _6  and  _8
REMARK    4  A    between atoms: _8  and  _9
REMARK    5  A    between atoms: _8  and  _11
REMARK    6  A    between atoms: _11  and  _12
REMARK    7  A    between atoms: _17  and  _19
REMARK    8  A    between atoms: _19  and  _20
REMARK    9  A    between atoms: _19  and  _22
REMARK   10  A    between atoms: _22  and  _23
REMARK   11  A    between atoms: _23  and  _24
REMARK   12  A    between atoms: _24  and  _25
REMARK   13  A    between atoms: _34  and  _36
REMARK   14  A    between atoms: _36  and  _37
REMARK   15  A    between atoms: _36  and  _39
REMARK   16  A    between atoms: _39  and  _40
REMARK   17  A    between atoms: _42  and  _44
REMARK   18  A    between atoms: _44  and  _45
REMARK   19  A    between atoms: _44  and  _47
REMARK   20  A    between atoms: _47  and  _48
REMARK   21  A    between atoms: _51  and  _53
REMARK   22  A    between atoms: _53  and  _54
REMARK   23  A    between atoms: _53  and  _56
REMARK   24  A    between atoms: _56  and  _57
REMARK   25  A    between atoms: _59  and  _61
REMARK   26  A    between atoms: _61  and  _62
REMARK   27  A    between atoms: _61  and  _64
REMARK   28  A    between atoms: _64  and  _65
REMARK   29  A    between atoms: _65  and  _66
REMARK   30  A    between atoms: _66  and  _67
REMARK   31  A    between atoms: _67  and  _68
REMARK   32  A    between atoms: _73  and  _74
REMARK   33  A    between atoms: _79  and  _81
REMARK   34  A    between atoms: _81  and  _82
REMARK   35  A    between atoms: _81  and  _84
REMARK   36  A    between atoms: _84  and  _85
REMARK   37  A    between atoms: _90  and  _92
REMARK   38  A    between atoms: _92  and  _93
REMARK   39  A    between atoms: _92  and  _95
REMARK   40  A    between atoms: _95  and  _96
REMARK   41  A    between atoms: _96  and  _97
REMARK   42  A    between atoms: _102  and  _104
REMARK   43  A    between atoms: _104  and  _105
REMARK   44  A    between atoms: _104  and  _107
REMARK   45  A    between atoms: _107  and  _108
REMARK   46  A    between atoms: _108  and  _109
REMARK   47  A    between atoms: _109  and  _110
REMARK   48  A    between atoms: _110  and  _111
REMARK   49  A    between atoms: _115  and  _117
REMARK   50  A    between atoms: _117  and  _118
REMARK   51  A    between atoms: _117  and  _120
REMARK   52  A    between atoms: _120  and  _121
REMARK   53  A    between atoms: _121  and  _122
REMARK   54  A    between atoms: _125  and  _127
REMARK   55  A    between atoms: _127  and  _128
REMARK   56  A    between atoms: _127  and  _130
REMARK   57  A    between atoms: _133  and  _135
REMARK   58  A    between atoms: _135  and  _136
REMARK   59  A    between atoms: _135  and  _138
REMARK   60  A    between atoms: _141  and  _143
REMARK   61  A    between atoms: _143  and  _144
REMARK   62  A    between atoms: _143  and  _146
REMARK   63  A    between atoms: _146  and  _147
REMARK   64  A    between atoms: _149  and  _151
REMARK   65  A    between atoms: _151  and  _152
REMARK   66  A    between atoms: _151  and  _154
REMARK   67  A    between atoms: _154  and  _155
REMARK   68  A    between atoms: _158  and  _160
REMARK   69  A    between atoms: _160  and  _161
REMARK   70  A    between atoms: _164  and  _165
REMARK   71  A    between atoms: _170  and  _172
REMARK   72  A    between atoms: _172  and  _173
REMARK   73  A    between atoms: _172  and  _175
REMARK   74  A    between atoms: _175  and  _176
REMARK   75  A    between atoms: _176  and  _177
REMARK   76  A    between atoms: _182  and  _184
REMARK   77  A    between atoms: _184  and  _185
REMARK   78  A    between atoms: _187  and  _189
REMARK   79  A    between atoms: _189  and  _190
REMARK   80  A    between atoms: _193  and  _195
REMARK   81  A    between atoms: _195  and  _196
REMARK   82  A    between atoms: _195  and  _198
REMARK   83  A    between atoms: _198  and  _199
REMARK   84  A    between atoms: _202  and  _204
REMARK   85  A    between atoms: _204  and  _205
REMARK   86  A    between atoms: _204  and  _207
REMARK   87  A    between atoms: _210  and  _212
REMARK   88  A    between atoms: _212  and  _213
REMARK   89  A    between atoms: _212  and  _215
REMARK   90  A    between atoms: _219  and  _220
REMARK   91  A    between atoms: _226  and  _227
REMARK   92  A    between atoms: _233  and  _234
REMARK   93  A    between atoms: _239  and  _241
REMARK   94  A    between atoms: _241  and  _242
REMARK   95  A    between atoms: _241  and  _244
REMARK   96  A    between atoms: _247  and  _249
REMARK   97  A    between atoms: _249  and  _250
REMARK   98  A    between atoms: _249  and  _252
REMARK   99  A    between atoms: _252  and  _253
REMARK  100  A    between atoms: _253  and  _254
REMARK  101  A    between atoms: _254  and  _255
REMARK  102  A    between atoms: _255  and  _256
REMARK  103  A    between atoms: _260  and  _262
REMARK  104  A    between atoms: _262  and  _263
REMARK  105  A    between atoms: _262  and  _265
REMARK  106  A    between atoms: _265  and  _266
REMARK  107  A    between atoms: _268  and  _270
REMARK  108  A    between atoms: _270  and  _271
REMARK  109  A    between atoms: _270  and  _273
REMARK  110  A    between atoms: _273  and  _274
REMARK  111  A    between atoms: _274  and  _275
REMARK  112  A    between atoms: _280  and  _282
REMARK  113  A    between atoms: _282  and  _283
REMARK  114  A    between atoms: _282  and  _285
REMARK  115  A    between atoms: _285  and  _286
REMARK  116  A    between atoms: _288  and  _290
REMARK  117  A    between atoms: _290  and  _291
REMARK  118  A    between atoms: _290  and  _293
REMARK  119  A    between atoms: _293  and  _294
REMARK  120  A    between atoms: _297  and  _299
REMARK  121  A    between atoms: _299  and  _300
REMARK  122  A    between atoms: _299  and  _302
REMARK  123  A    between atoms: _305  and  _307
REMARK  124  A    between atoms: _307  and  _308
REMARK  125  A    between atoms: _310  and  _312
REMARK  126  A    between atoms: _312  and  _313
REMARK  127  A    between atoms: _316  and  _318
REMARK  128  A    between atoms: _318  and  _319
REMARK  129  A    between atoms: _321  and  _323
REMARK  130  A    between atoms: _323  and  _324
REMARK  131  A    between atoms: _323  and  _326
REMARK  132  A    between atoms: _326  and  _327
REMARK  133  A    between atoms: _330  and  _332
REMARK  134  A    between atoms: _332  and  _333
REMARK  135  A    between atoms: _332  and  _335
REMARK  136  A    between atoms: _335  and  _336
REMARK  137  A    between atoms: _338  and  _340
REMARK  138  A    between atoms: _340  and  _341
REMARK  139  A    between atoms: _340  and  _343
REMARK  140  A    between atoms: _343  and  _344
REMARK  141  A    between atoms: _344  and  _345
REMARK  142  A    between atoms: _347  and  _349
REMARK  143  A    between atoms: _349  and  _350
REMARK  144  A    between atoms: _349  and  _352
REMARK  145  A    between atoms: _355  and  _357
REMARK  146  A    between atoms: _357  and  _358
REMARK  147  A    between atoms: _357  and  _360
REMARK  148  A    between atoms: _360  and  _361
REMARK  149  A    between atoms: _361  and  _362
REMARK  150  A    between atoms: _364  and  _366
REMARK  151  A    between atoms: _366  and  _367
REMARK  152  A    between atoms: _366  and  _369
REMARK  153  A    between atoms: _372  and  _374
REMARK  154  A    between atoms: _374  and  _375
REMARK  155  A    between atoms: _374  and  _377
REMARK  156  A    between atoms: _377  and  _378
REMARK  157  A    between atoms: _378  and  _379
REMARK  158  A    between atoms: _379  and  _380
REMARK  159  A    between atoms: _389  and  _391
REMARK  160  A    between atoms: _391  and  _392
REMARK  161  A    between atoms: _391  and  _394
REMARK  162  A    between atoms: _394  and  _395
REMARK  163  A    between atoms: _401  and  _403
REMARK  164  A    between atoms: _403  and  _404
REMARK  165  A    between atoms: _406  and  _408
REMARK  166  A    between atoms: _408  and  _409
REMARK  167  A    between atoms: _408  and  _411
REMARK  168  A    between atoms: _414  and  _416
REMARK  169  A    between atoms: _416  and  _417
REMARK  170  A    between atoms: _420  and  _422
REMARK  171  A    between atoms: _422  and  _423
REMARK  172  A    between atoms: _426  and  _428
REMARK  173  A    between atoms: _428  and  _429
REMARK  174  A    between atoms: _431  and  _433
REMARK  175  A    between atoms: _433  and  _434
REMARK  176  A    between atoms: _433  and  _436
REMARK  177  A    between atoms: _436  and  _437
REMARK  178  A    between atoms: _439  and  _441
REMARK  179  A    between atoms: _441  and  _442
REMARK  180  A    between atoms: _445  and  _447
REMARK  181  A    between atoms: _447  and  _448
REMARK  182  A    between atoms: _451  and  _453
REMARK  183  A    between atoms: _453  and  _454
REMARK  184  A    between atoms: _453  and  _456
REMARK  185  A    between atoms: _456  and  _457
REMARK  186  A    between atoms: _460  and  _462
REMARK  187  A    between atoms: _462  and  _463
REMARK  188  A    between atoms: _462  and  _465
REMARK  189  A    between atoms: _465  and  _466
REMARK  190  A    between atoms: _469  and  _471
REMARK  191  A    between atoms: _471  and  _472
REMARK  192  A    between atoms: _471  and  _474
REMARK  193  A    between atoms: _474  and  _475
REMARK  194  A    between atoms: _478  and  _480
REMARK  195  A    between atoms: _480  and  _481
REMARK  196  A    between atoms: _480  and  _483
REMARK  197  A    between atoms: _483  and  _484
REMARK  198  A    between atoms: _487  and  _489
REMARK  199  A    between atoms: _489  and  _490
REMARK  200  A    between atoms: _489  and  _492
REMARK  201  A    between atoms: _492  and  _493
REMARK  202  A    between atoms: _496  and  _498
REMARK  203  A    between atoms: _498  and  _499
REMARK  204  A    between atoms: _498  and  _501
REMARK  205  A    between atoms: _501  and  _502
REMARK  206  A    between atoms: _502  and  _503
REMARK  207  A    between atoms: _506  and  _508
REMARK  208  A    between atoms: _508  and  _509
REMARK  209  A    between atoms: _511  and  _513
REMARK  210  A    between atoms: _513  and  _514
REMARK  211  A    between atoms: _513  and  _516
REMARK  212  A    between atoms: _516  and  _517
REMARK  213  A    between atoms: _517  and  _518
REMARK  214  A    between atoms: _518  and  _519
REMARK  215  A    between atoms: _519  and  _520
REMARK  216  A    between atoms: _524  and  _526
REMARK  217  A    between atoms: _526  and  _527
REMARK  218  A    between atoms: _526  and  _529
REMARK  219  A    between atoms: _529  and  _530
REMARK  220  A    between atoms: _530  and  _531
REMARK  221  A    between atoms: _537  and  _538
REMARK  222  A    between atoms: _543  and  _545
REMARK  223  A    between atoms: _545  and  _546
REMARK  224  A    between atoms: _545  and  _548
REMARK  225  A    between atoms: _548  and  _549
REMARK  226  A    between atoms: _549  and  _550
REMARK                            x       y       z     vdW  Elec       q    Type
REMARK                         _______ _______ _______ _____ _____    ______ ____
ROOT
ATOM      1  C   GLN A   9      -2.666 -14.079   9.284  0.00  0.00    +0.241 C 
ATOM      2  N   SER A  10      -1.907 -14.451  10.311  0.00  0.00    -0.295 N 
ATOM      3  H   SER A  10      -2.055 -15.394  10.724  0.00  0.00    +0.150 HD
ATOM      4  O   GLN A   9      -2.570 -12.976   8.735  0.00  0.00    -0.273 OA
ENDROOT
BRANCH   1   5
ATOM      5  CA  GLN A   9      -3.707 -15.108   8.831  0.00  0.00    +0.149 C 
BRANCH   5   7
ATOM      6  C   SER A   8      -2.494 -16.978   7.834  0.00  0.00    +0.243 C 
ATOM      7  N   GLN A   9      -3.147 -16.456   8.870  0.00  0.00    -0.297 N 
ATOM      8  H   GLN A   9      -3.262 -17.025   9.733  0.00  0.00    +0.150 HD
ATOM      9  O   SER A   8      -2.419 -16.422   6.736  0.00  0.00    -0.273 OA
BRANCH   6  10
ATOM     10  CA  SER A   8      -1.860 -18.350   8.050  0.00  0.00    +0.178 C 
BRANCH  10  13
ATOM     11  C   LYS A   7      -3.422 -19.732   6.809  0.00  0.00    +0.241 C 
ATOM     12  O   LYS A   7      -4.306 -19.570   7.653  0.00  0.00    -0.273 OA
ATOM     13  N   SER A   8      -2.206 -19.213   6.929  0.00  0.00    -0.295 N 
ATOM     14  H   SER A   8      -1.487 -19.427   6.209  0.00  0.00    +0.150 HD
BRANCH  11  15
ATOM     15  CA  LYS A   7      -3.676 -20.535   5.538  0.00  0.00    +0.149 C 
BRANCH  15  18
ATOM     16  C   VAL A   6      -3.583 -22.817   6.391  0.00  0.00    +0.241 C 
ATOM     17  O   VAL A   6      -2.445 -22.665   6.833  0.00  0.00    -0.273 OA
ATOM     18  N   LYS A   7      -4.266 -21.846   5.795  0.00  0.00    -0.297 N 
ATOM     19  H   LYS A   7      -5.248 -22.024   5.503  0.00  0.00    +0.150 HD
BRANCH  16  20
ATOM     20  CA  VAL A   6      -4.280 -24.163   6.506  0.00  0.00    +0.149 C 
BRANCH  20  22
ATOM     21  C   PRO A   5      -3.424 -26.091   5.264  0.00  0.00    +0.241 C 
ATOM     22  N   VAL A   6      -3.303 -25.213   6.254  0.00  0.00    -0.297 N 
ATOM     23  H   VAL A   6      -2.473 -25.279   6.877  0.00  0.00    +0.150 HD
ATOM     24  O   PRO A   5      -4.405 -26.161   4.522  0.00  0.00    -0.273 OA
BRANCH  21  31
ATOM     25  C   PRO A   4      -1.795 -27.869   7.365  0.00  0.00    +0.244 C 
ATOM     26  O   PRO A   4      -1.399 -26.759   7.747  0.00  0.00    -0.273 OA
ATOM     27  N   PRO A   5      -2.254 -28.101   6.124  0.00  0.00    -0.272 N 
ATOM     28  CD  PRO A   5      -2.657 -29.414   5.585  0.00  0.00    +0.094 C 
ATOM     29  CG  PRO A   5      -3.067 -29.111   4.167  0.00  0.00    +0.024 C 
ATOM     30  CB  PRO A   5      -2.381 -27.841   3.789  0.00  0.00    +0.031 C 
ATOM     31  CA  PRO A   5      -2.256 -27.053   5.098  0.00  0.00    +0.152 C 
BRANCH  25  37
ATOM     32  C   PRO A   3       0.505 -28.741   9.149  0.00  0.00    +0.244 C 
ATOM     33  N   PRO A   4      -0.805 -28.811   9.408  0.00  0.00    -0.272 N 
ATOM     34  CD  PRO A   4      -1.467 -28.746  10.722  0.00  0.00    +0.094 C 
ATOM     35  CG  PRO A   4      -2.910 -28.560  10.363  0.00  0.00    +0.024 C 
ATOM     36  CB  PRO A   4      -3.092 -29.227   9.046  0.00  0.00    +0.031 C 
ATOM     37  CA  PRO A   4      -1.749 -29.060   8.318  0.00  0.00    +0.152 C 
ATOM     38  O   PRO A   3       0.978 -28.967   8.030  0.00  0.00    -0.273 OA
BRANCH  32  42
ATOM     39  C   VAL A   2       3.135 -30.039   9.992  0.00  0.00    +0.244 C 
ATOM     40  O   VAL A   2       2.323 -30.942  10.192  0.00  0.00    -0.273 OA
ATOM     41  N   PRO A   3       2.798 -28.738  10.038  0.00  0.00    -0.272 N 
ATOM     42  CA  PRO A   3       1.411 -28.344  10.303  0.00  0.00    +0.152 C 
ATOM     43  CB  PRO A   3       1.473 -26.808  10.354  0.00  0.00    +0.031 C 
ATOM     44  CG  PRO A   3       2.909 -26.432  10.289  0.00  0.00    +0.024 C 
ATOM     45  CD  PRO A   3       3.659 -27.587   9.732  0.00  0.00    +0.094 C 
BRANCH  39  46
ATOM     46  CA  VAL A   2       4.596 -30.375   9.689  0.00  0.00    +0.149 C 
BRANCH  46  49
ATOM     47  C   VAL A   1       5.933 -31.183  11.571  0.00  0.00    +0.238 C 
ATOM     48  O   VAL A   1       6.433 -30.077  11.774  0.00  0.00    -0.274 OA
ATOM     49  N   VAL A   2       5.048 -31.421  10.605  0.00  0.00    -0.297 N 
ATOM     50  H   VAL A   2       4.666 -32.382  10.499  0.00  0.00    +0.150 HD
BRANCH  47  51
ATOM     51  CA  VAL A   1       6.326 -32.371  12.431  0.00  0.00    +0.145 C 
BRANCH  51  52
ATOM     52  CB  VAL A   1       5.817 -32.173  13.863  0.00  0.00    +0.025 C 
ATOM     53  CG2 VAL A   1       6.122 -33.403  14.698  0.00  0.00    +0.002 C 
ATOM     54  CG1 VAL A   1       4.308 -31.885  13.857  0.00  0.00    +0.002 C 
ENDBRANCH  51  52
BRANCH  51  55
ATOM     55  N   VAL A   1       7.772 -32.485  12.404  0.00  0.00    -0.238 NA
ATOM     56  H   VAL A   1       8.354 -31.672  12.688  0.00  0.00    +0.142 HD
ENDBRANCH  51  55
ENDBRANCH  47  51
ENDBRANCH  46  49
BRANCH  46  57
ATOM     57  CB  VAL A   2       4.738 -30.857   8.234  0.00  0.00    +0.027 C 
ATOM     58  CG2 VAL A   2       6.116 -31.476   8.044  0.00  0.00    +0.002 C 
ATOM     59  CG1 VAL A   2       4.521 -29.717   7.234  0.00  0.00    +0.002 C 
ENDBRANCH  46  57
ENDBRANCH  39  46
ENDBRANCH  32  42
ENDBRANCH  25  37
ENDBRANCH  21  31
ENDBRANCH  20  22
BRANCH  20  60
ATOM     60  CB  VAL A   6      -4.901 -24.301   7.909  0.00  0.00    +0.027 C 
ATOM     61  CG2 VAL A   6      -5.949 -23.213   8.143  0.00  0.00    +0.002 C 
ATOM     62  CG1 VAL A   6      -5.515 -25.684   8.073  0.00  0.00    +0.002 C 
ENDBRANCH  20  60
ENDBRANCH  16  20
ENDBRANCH  15  18
BRANCH  15  63
ATOM     63  CB  LYS A   7      -4.566 -19.725   4.594  0.00  0.00    +0.029 C 
BRANCH  63  64
ATOM     64  CG  LYS A   7      -3.960 -18.400   4.148  0.00  0.00    +0.000 C 
BRANCH  64  65
ATOM     65  CD  LYS A   7      -4.977 -17.574   3.373  0.00  0.00    -0.024 C 
BRANCH  65  66
ATOM     66  CE  LYS A   7      -5.391 -16.341   4.161  0.00  0.00    -0.086 C 
BRANCH  66  67
ATOM     67  NZ  LYS A   7      -6.740 -15.845   3.767  0.00  0.00    +0.380 N 
ATOM     68  HZ1 LYS A   7      -6.977 -15.004   4.331  0.00  0.00    -0.089 HD
ATOM     69  HZ2 LYS A   7      -7.446 -16.590   3.938  0.00  0.00    -0.089 HD
ATOM     70  HZ3 LYS A   7      -6.735 -15.596   2.757  0.00  0.00    -0.089 HD
ENDBRANCH  66  67
ENDBRANCH  65  66
ENDBRANCH  64  65
ENDBRANCH  63  64
ENDBRANCH  15  63
ENDBRANCH  11  15
ENDBRANCH  10  13
BRANCH  10  71
ATOM     71  CB  SER A   8      -0.339 -18.225   8.171  0.00  0.00    +0.166 C 
BRANCH  71  72
ATOM     72  OG  SER A   8       0.019 -17.129   8.995  0.00  0.00    -0.380 OA
ATOM     73  H   SER A   8      -0.338 -16.293   8.603  0.00  0.00    +0.211 HD
ENDBRANCH  71  72
ENDBRANCH  10  71
ENDBRANCH   6  10
ENDBRANCH   5   7
BRANCH   5  74
ATOM     74  CB  GLN A   9      -4.958 -15.027   9.704  0.00  0.00    +0.039 C 
BRANCH  74  75
ATOM     75  CG  GLN A   9      -6.113 -15.874   9.196  0.00  0.00    +0.087 C 
BRANCH  75  76
ATOM     76  CD  GLN A   9      -6.643 -15.406   7.848  0.00  0.00    +0.219 C 
ATOM     77  NE2 GLN A   9      -6.696 -14.091   7.654  0.00  0.00    -0.329 N 
ATOM     78 HE21 GLN A   9      -6.373 -13.442   8.400  0.00  0.00    +0.145 HD
ATOM     79 HE22 GLN A   9      -7.060 -13.712   6.757  0.00  0.00    +0.145 HD
ATOM     80  OE1 GLN A   9      -7.013 -16.219   6.997  0.00  0.00    -0.275 OA
ENDBRANCH  75  76
ENDBRANCH  74  75
ENDBRANCH   5  74
ENDBRANCH   1   5
BRANCH   2  81
ATOM     81  CA  SER A  10      -0.876 -13.591  10.882  0.00  0.00    +0.178 C 
BRANCH  81  82
ATOM     82  C   SER A  10       0.077 -14.417  11.738  0.00  0.00    +0.243 C 
ATOM     83  O   SER A  10      -0.346 -15.085  12.675  0.00  0.00    -0.273 OA
ATOM     84  N   THR A  11       1.362 -14.364  11.412  0.00  0.00    -0.295 N 
ATOM     85  H   THR A  11       1.668 -13.704  10.668  0.00  0.00    +0.150 HD
BRANCH  84  86
ATOM     86  CA  THR A  11       2.360 -15.206  12.068  0.00  0.00    +0.176 C 
BRANCH  86  87
ATOM     87  C   THR A  11       2.825 -14.708  13.439  0.00  0.00    +0.243 C 
ATOM     88  O   THR A  11       3.526 -15.419  14.151  0.00  0.00    -0.273 OA
ATOM     89  N   VAL A  12       2.439 -13.491  13.802  0.00  0.00    -0.297 N 
ATOM     90  H   VAL A  12       1.860 -12.926  13.149  0.00  0.00    +0.150 HD
BRANCH  89  91
ATOM     91  CA  VAL A  12       2.807 -12.930  15.093  0.00  0.00    +0.149 C 
BRANCH  91  92
ATOM     92  C   VAL A  12       2.395 -13.837  16.248  0.00  0.00    +0.241 C 
ATOM     93  N   GLY A  13       3.347 -14.135  17.125  0.00  0.00    -0.295 N 
ATOM     94  H   GLY A  13       4.314 -13.792  16.958  0.00  0.00    +0.150 HD
ATOM     95  O   VAL A  12       1.245 -14.253  16.341  0.00  0.00    -0.273 OA
BRANCH  93  96
ATOM     96  CA  GLY A  13       3.074 -14.925  18.309  0.00  0.00    +0.176 C 
BRANCH  96  97
ATOM     97  C   GLY A  13       3.240 -16.423  18.136  0.00  0.00    +0.243 C 
ATOM     98  O   GLY A  13       3.005 -17.181  19.071  0.00  0.00    -0.273 OA
ATOM     99  N   ALA A  14       3.645 -16.857  16.948  0.00  0.00    -0.297 N 
ATOM    100  H   ALA A  14       3.865 -16.173  16.196  0.00  0.00    +0.150 HD
BRANCH  99 101
ATOM    101  CA  ALA A  14       3.784 -18.294  16.689  0.00  0.00    +0.149 C 
ATOM    102  CB  ALA A  14       4.100 -18.541  15.232  0.00  0.00    +0.031 C 
BRANCH 101 103
ATOM    103  C   ALA A  14       4.865 -18.919  17.573  0.00  0.00    +0.241 C 
ATOM    104  O   ALA A  14       4.658 -19.986  18.167  0.00  0.00    -0.273 OA
ATOM    105  N   GLY A  15       6.018 -18.259  17.640  0.00  0.00    -0.295 N 
ATOM    106  H   GLY A  15       6.115 -17.355  17.135  0.00  0.00    +0.150 HD
BRANCH 105 107
ATOM    107  CA  GLY A  15       7.146 -18.770  18.402  0.00  0.00    +0.176 C 
BRANCH 107 108
ATOM    108  C   GLY A  15       6.847 -18.938  19.887  0.00  0.00    +0.243 C 
ATOM    109  N   ASP A  16       6.297 -17.898  20.495  0.00  0.00    -0.296 N 
ATOM    110  H   ASP A  16       6.067 -17.043  19.950  0.00  0.00    +0.150 HD
ATOM    111  O   GLY A  15       7.112 -19.990  20.485  0.00  0.00    -0.273 OA
BRANCH 109 112
ATOM    112  CA  ASP A  16       6.013 -17.944  21.922  0.00  0.00    +0.160 C 
BRANCH 112 113
ATOM    113  C   ASP A  16       4.886 -18.924  22.239  0.00  0.00    +0.241 C 
ATOM    114  O   ASP A  16       4.894 -19.560  23.290  0.00  0.00    -0.273 OA
ATOM    115  N   SER A  17       3.924 -19.049  21.330  0.00  0.00    -0.295 N 
ATOM    116  H   SER A  17       3.936 -18.445  20.483  0.00  0.00    +0.150 HD
BRANCH 115 117
ATOM    117  CA  SER A  17       2.853 -20.021  21.505  0.00  0.00    +0.178 C 
BRANCH 117 118
ATOM    118  C   SER A  17       3.425 -21.427  21.476  0.00  0.00    +0.243 C 
ATOM    119  O   SER A  17       3.069 -22.265  22.308  0.00  0.00    -0.273 OA
ATOM    120  N   MET A  18       4.305 -21.687  20.513  0.00  0.00    -0.297 N 
ATOM    121  H   MET A  18       4.523 -20.957  19.805  0.00  0.00    +0.150 HD
BRANCH 120 122
ATOM    122  CA  MET A  18       4.969 -22.986  20.438  0.00  0.00    +0.149 C 
BRANCH 122 123
ATOM    123  C   MET A  18       5.764 -23.293  21.705  0.00  0.00    +0.241 C 
ATOM    124  O   MET A  18       5.691 -24.408  22.239  0.00  0.00    -0.273 OA
ATOM    125  N   VAL A  19       6.538 -22.321  22.183  0.00  0.00    -0.298 N 
ATOM    126  H   VAL A  19       6.589 -21.409  21.686  0.00  0.00    +0.150 HD
BRANCH 125 127
ATOM    127  CA  VAL A  19       7.318 -22.529  23.405  0.00  0.00    +0.137 C 
BRANCH 127 128
ATOM    128  CB  VAL A  19       8.287 -21.361  23.680  0.00  0.00    +0.026 C 
ATOM    129  CG2 VAL A  19       8.930 -21.508  25.051  0.00  0.00    +0.002 C 
ATOM    130  CG1 VAL A  19       9.349 -21.313  22.593  0.00  0.00    +0.002 C 
ENDBRANCH 127 128
BRANCH 127 131
ATOM    131  C   VAL A  19       6.432 -22.813  24.618  0.00  0.00    +0.227 C 
ATOM    132  O   VAL A  19       6.732 -23.715  25.413  0.00  0.00    -0.286 OA
ENDBRANCH 127 131
ENDBRANCH 125 127
ENDBRANCH 122 123
BRANCH 122 133
ATOM    133  CB  MET A  18       5.892 -23.055  19.215  0.00  0.00    +0.041 C 
BRANCH 133 134
ATOM    134  CG  MET A  18       6.876 -24.217  19.272  0.00  0.00    +0.060 C 
BRANCH 134 135
ATOM    135  SD  MET A  18       7.794 -24.411  17.732  0.00  0.00    -0.139 S 
ATOM    136  CE  MET A  18       6.770 -25.613  16.884  0.00  0.00    +0.069 C 
ENDBRANCH 134 135
ENDBRANCH 133 134
ENDBRANCH 122 133
ENDBRANCH 120 122
ENDBRANCH 117 118
BRANCH 117 137
ATOM    137  CB  SER A  17       1.790 -19.873  20.415  0.00  0.00    +0.166 C 
BRANCH 137 138
ATOM    138  OG  SER A  17       1.075 -18.656  20.579  0.00  0.00    -0.380 OA
ATOM    139  H   SER A  17       1.705 -17.894  20.520  0.00  0.00    +0.211 HD
ENDBRANCH 137 138
ENDBRANCH 117 137
ENDBRANCH 115 117
ENDBRANCH 112 113
BRANCH 112 140
ATOM    140  CB  ASP A  16       5.702 -16.543  22.447  0.00  0.00    +0.143 C 
BRANCH 140 141
ATOM    141  CG  ASP A  16       6.882 -15.595  22.300  0.00  0.00    +0.367 C 
ATOM    142  OD2 ASP A  16       8.042 -16.063  22.356  0.00  0.00    -0.246 OA
ATOM    143  OD1 ASP A  16       6.653 -14.379  22.126  0.00  0.00    -0.246 OA
ENDBRANCH 140 141
ENDBRANCH 112 140
ENDBRANCH 109 112
ENDBRANCH 107 108
ENDBRANCH 105 107
ENDBRANCH 101 103
ENDBRANCH  99 101
ENDBRANCH  96  97
ENDBRANCH  93  96
ENDBRANCH  91  92
BRANCH  91 144
ATOM    144  CB  VAL A  12       2.173 -11.543  15.301  0.00  0.00    +0.027 C 
ATOM    145  CG2 VAL A  12       2.559 -10.987  16.657  0.00  0.00    +0.002 C 
ATOM    146  CG1 VAL A  12       2.595 -10.598  14.192  0.00  0.00    +0.002 C 
ENDBRANCH  91 144
ENDBRANCH  89  91
ENDBRANCH  86  87
BRANCH  86 147
ATOM    147  CB  THR A  11       3.589 -15.405  11.169  0.00  0.00    +0.137 C 
ATOM    148  CG2 THR A  11       3.210 -16.185   9.924  0.00  0.00    +0.034 C 
BRANCH 147 149
ATOM    149  OG1 THR A  11       4.108 -14.129  10.784  0.00  0.00    -0.382 OA
ATOM    150  HG1 THR A  11       4.900 -14.258  10.204  0.00  0.00    +0.210 HD
ENDBRANCH 147 149
ENDBRANCH  86 147
ENDBRANCH  84  86
ENDBRANCH  81  82
BRANCH  81 151
ATOM    151  CB  SER A  10      -1.507 -12.483  11.722  0.00  0.00    +0.166 C 
BRANCH 151 152
ATOM    152  OG  SER A  10      -0.563 -11.922  12.614  0.00  0.00    -0.380 OA
ATOM    153  H   SER A  10      -0.997 -11.208  13.145  0.00  0.00    +0.211 HD
ENDBRANCH 151 152
ENDBRANCH  81 151
ENDBRANCH   2  81
TORSDOF 61
REMARK  Name = ../refined-set-2016/3umo/3umo_pocket.pdb
REMARK  226 active torsions:
REMARK  status: ('A' for Active; 'I' for Inactive)
REMARK    1  A    between atoms: _1  and  _3
REMARK    2  A    between atoms: _3  and  _4
REMARK    3  A    between atoms: _6  and  _8
REMARK    4  A    between atoms: _8  and  _9
REMARK    5  A    between atoms: _8  and  _11
REMARK    6  A    between atoms: _11  and  _12
REMARK    7  A    between atoms: _17  and  _19
REMARK    8  A    between atoms: _19  and  _20
REMARK    9  A    between atoms: _19  and  _22
REMARK   10  A    between atoms: _22  and  _23
REMARK   11  A    between atoms: _23  and  _24
REMARK   12  A    between atoms: _24  and  _25
REMARK   13  A    between atoms: _34  and  _36
REMARK   14  A    between atoms: _36  and  _37
REMARK   15  A    between atoms: _36  and  _39
REMARK   16  A    between atoms: _39  and  _40
REMARK   17  A    between atoms: _42  and  _44
REMARK   18  A    between atoms: _44  and  _45
REMARK   19  A    between atoms: _44  and  _47
REMARK   20  A    between atoms: _47  and  _48
REMARK   21  A    between atoms: _51  and  _53
REMARK   22  A    between atoms: _53  and  _54
REMARK   23  A    between atoms: _53  and  _56
REMARK   24  A    between atoms: _56  and  _57
REMARK   25  A    between atoms: _59  and  _61
REMARK   26  A    between atoms: _61  and  _62
REMARK   27  A    between atoms: _61  and  _64
REMARK   28  A    between atoms: _64  and  _65
REMARK   29  A    between atoms: _65  and  _66
REMARK   30  A    between atoms: _66  and  _67
REMARK   31  A    between atoms: _67  and  _68
REMARK   32  A    between atoms: _73  and  _74
REMARK   33  A    between atoms: _79  and  _81
REMARK   34  A    between atoms: _81  and  _82
REMARK   35  A    between atoms: _81  and  _84
REMARK   36  A    between atoms: _84  and  _85
REMARK   37  A    between atoms: _90  and  _92
REMARK   38  A    between atoms: _92  and  _93
REMARK   39  A    between atoms: _92  and  _95
REMARK   40  A    between atoms: _95  and  _96
REMARK   41  A    between atoms: _96  and  _97
REMARK   42  A    between atoms: _102  and  _104
REMARK   43  A    between atoms: _104  and  _105
REMARK   44  A    between atoms: _104  and  _107
REMARK   45  A    between atoms: _107  and  _108
REMARK   46  A    between atoms: _108  and  _109
REMARK   47  A    between atoms: _109  and  _110
REMARK   48  A    between atoms: _110  and  _111
REMARK   49  A    between atoms: _115  and  _117
REMARK   50  A    between atoms: _117  and  _118
REMARK   51  A    between atoms: _117  and  _120
REMARK   52  A    between atoms: _120  and  _121
REMARK   53  A    between atoms: _121  and  _122
REMARK   54  A    between atoms: _125  and  _127
REMARK   55  A    between atoms: _127  and  _128
REMARK   56  A    between atoms: _127  and  _130
REMARK   57  A    between atoms: _133  and  _135
REMARK   58  A    between atoms: _135  and  _136
REMARK   59  A    between atoms: _135  and  _138
REMARK   60  A    between atoms: _141  and  _143
REMARK   61  A    between atoms: _143  and  _144
REMARK   62  A    between atoms: _143  and  _146
REMARK   63  A    between atoms: _146  and  _147
REMARK   64  A    between atoms: _149  and  _151
REMARK   65  A    between atoms: _151  and  _152
REMARK   66  A    between atoms: _151  and  _154
REMARK   67  A    between atoms: _154  and  _155
REMARK   68  A    between atoms: _158  and  _160
REMARK   69  A    between atoms: _160  and  _161
REMARK   70  A    between atoms: _164  and  _165
REMARK   71  A    between atoms: _170  and  _172
REMARK   72  A    between atoms: _172  and  _173
REMARK   73  A    between atoms: _172  and  _175
REMARK   74  A    between atoms: _175  and  _176
REMARK   75  A    between atoms: _176  and  _177
REMARK   76  A    between atoms: _182  and  _184
REMARK   77  A    between atoms: _184  and  _185
REMARK   78  A    between atoms: _187  and  _189
REMARK   79  A    between atoms: _189  and  _190
REMARK   80  A    between atoms: _193  and  _195
REMARK   81  A    between atoms: _195  and  _196
REMARK   82  A    between atoms: _195  and  _198
REMARK   83  A    between atoms: _198  and  _199
REMARK   84  A    between atoms: _202  and  _204
REMARK   85  A    between atoms: _204  and  _205
REMARK   86  A    between atoms: _204  and  _207
REMARK   87  A    between atoms: _210  and  _212
REMARK   88  A    between atoms: _212  and  _213
REMARK   89  A    between atoms: _212  and  _215
REMARK   90  A    between atoms: _219  and  _220
REMARK   91  A    between atoms: _226  and  _227
REMARK   92  A    between atoms: _233  and  _234
REMARK   93  A    between atoms: _239  and  _241
REMARK   94  A    between atoms: _241  and  _242
REMARK   95  A    between atoms: _241  and  _244
REMARK   96  A    between atoms: _247  and  _249
REMARK   97  A    between atoms: _249  and  _250
REMARK   98  A    between atoms: _249  and  _252
REMARK   99  A    between atoms: _252  and  _253
REMARK  100  A    between atoms: _253  and  _254
REMARK  101  A    between atoms: _254  and  _255
REMARK  102  A    between atoms: _255  and  _256
REMARK  103  A    between atoms: _260  and  _262
REMARK  104  A    between atoms: _262  and  _263
REMARK  105  A    between atoms: _262  and  _265
REMARK  106  A    between atoms: _265  and  _266
REMARK  107  A    between atoms: _268  and  _270
REMARK  108  A    between atoms: _270  and  _271
REMARK  109  A    between atoms: _270  and  _273
REMARK  110  A    between atoms: _273  and  _274
REMARK  111  A    between atoms: _274  and  _275
REMARK  112  A    between atoms: _280  and  _282
REMARK  113  A    between atoms: _282  and  _283
REMARK  114  A    between atoms: _282  and  _285
REMARK  115  A    between atoms: _285  and  _286
REMARK  116  A    between atoms: _288  and  _290
REMARK  117  A    between atoms: _290  and  _291
REMARK  118  A    between atoms: _290  and  _293
REMARK  119  A    between atoms: _293  and  _294
REMARK  120  A    between atoms: _297  and  _299
REMARK  121  A    between atoms: _299  and  _300
REMARK  122  A    between atoms: _299  and  _302
REMARK  123  A    between atoms: _305  and  _307
REMARK  124  A    between atoms: _307  and  _308
REMARK  125  A    between atoms: _310  and  _312
REMARK  126  A    between atoms: _312  and  _313
REMARK  127  A    between atoms: _316  and  _318
REMARK  128  A    between atoms: _318  and  _319
REMARK  129  A    between atoms: _321  and  _323
REMARK  130  A    between atoms: _323  and  _324
REMARK  131  A    between atoms: _323  and  _326
REMARK  132  A    between atoms: _326  and  _327
REMARK  133  A    between atoms: _330  and  _332
REMARK  134  A    between atoms: _332  and  _333
REMARK  135  A    between atoms: _332  and  _335
REMARK  136  A    between atoms: _335  and  _336
REMARK  137  A    between atoms: _338  and  _340
REMARK  138  A    between atoms: _340  and  _341
REMARK  139  A    between atoms: _340  and  _343
REMARK  140  A    between atoms: _343  and  _344
REMARK  141  A    between atoms: _344  and  _345
REMARK  142  A    between atoms: _347  and  _349
REMARK  143  A    between atoms: _349  and  _350
REMARK  144  A    between atoms: _349  and  _352
REMARK  145  A    between atoms: _355  and  _357
REMARK  146  A    between atoms: _357  and  _358
REMARK  147  A    between atoms: _357  and  _360
REMARK  148  A    between atoms: _360  and  _361
REMARK  149  A    between atoms: _361  and  _362
REMARK  150  A    between atoms: _364  and  _366
REMARK  151  A    between atoms: _366  and  _367
REMARK  152  A    between atoms: _366  and  _369
REMARK  153  A    between atoms: _372  and  _374
REMARK  154  A    between atoms: _374  and  _375
REMARK  155  A    between atoms: _374  and  _377
REMARK  156  A    between atoms: _377  and  _378
REMARK  157  A    between atoms: _378  and  _379
REMARK  158  A    between atoms: _379  and  _380
REMARK  159  A    between atoms: _389  and  _391
REMARK  160  A    between atoms: _391  and  _392
REMARK  161  A    between atoms: _391  and  _394
REMARK  162  A    between atoms: _394  and  _395
REMARK  163  A    between atoms: _401  and  _403
REMARK  164  A    between atoms: _403  and  _404
REMARK  165  A    between atoms: _406  and  _408
REMARK  166  A    between atoms: _408  and  _409
REMARK  167  A    between atoms: _408  and  _411
REMARK  168  A    between atoms: _414  and  _416
REMARK  169  A    between atoms: _416  and  _417
REMARK  170  A    between atoms: _420  and  _422
REMARK  171  A    between atoms: _422  and  _423
REMARK  172  A    between atoms: _426  and  _428
REMARK  173  A    between atoms: _428  and  _429
REMARK  174  A    between atoms: _431  and  _433
REMARK  175  A    between atoms: _433  and  _434
REMARK  176  A    between atoms: _433  and  _436
REMARK  177  A    between atoms: _436  and  _437
REMARK  178  A    between atoms: _439  and  _441
REMARK  179  A    between atoms: _441  and  _442
REMARK  180  A    between atoms: _445  and  _447
REMARK  181  A    between atoms: _447  and  _448
REMARK  182  A    between atoms: _451  and  _453
REMARK  183  A    between atoms: _453  and  _454
REMARK  184  A    between atoms: _453  and  _456
REMARK  185  A    between atoms: _456  and  _457
REMARK  186  A    between atoms: _460  and  _462
REMARK  187  A    between atoms: _462  and  _463
REMARK  188  A    between atoms: _462  and  _465
REMARK  189  A    between atoms: _465  and  _466
REMARK  190  A    between atoms: _469  and  _471
REMARK  191  A    between atoms: _471  and  _472
REMARK  192  A    between atoms: _471  and  _474
REMARK  193  A    between atoms: _474  and  _475
REMARK  194  A    between atoms: _478  and  _480
REMARK  195  A    between atoms: _480  and  _481
REMARK  196  A    between atoms: _480  and  _483
REMARK  197  A    between atoms: _483  and  _484
REMARK  198  A    between atoms: _487  and  _489
REMARK  199  A    between atoms: _489  and  _490
REMARK  200  A    between atoms: _489  and  _492
REMARK  201  A    between atoms: _492  and  _493
REMARK  202  A    between atoms: _496  and  _498
REMARK  203  A    between atoms: _498  and  _499
REMARK  204  A    between atoms: _498  and  _501
REMARK  205  A    between atoms: _501  and  _502
REMARK  206  A    between atoms: _502  and  _503
REMARK  207  A    between atoms: _506  and  _508
REMARK  208  A    between atoms: _508  and  _509
REMARK  209  A    between atoms: _511  and  _513
REMARK  210  A    between atoms: _513  and  _514
REMARK  211  A    between atoms: _513  and  _516
REMARK  212  A    between atoms: _516  and  _517
REMARK  213  A    between atoms: _517  and  _518
REMARK  214  A    between atoms: _518  and  _519
REMARK  215  A    between atoms: _519  and  _520
REMARK  216  A    between atoms: _524  and  _526
REMARK  217  A    between atoms: _526  and  _527
REMARK  218  A    between atoms: _526  and  _529
REMARK  219  A    between atoms: _529  and  _530
REMARK  220  A    between atoms: _530  and  _531
REMARK  221  A    between atoms: _537  and  _538
REMARK  222  A    between atoms: _543  and  _545
REMARK  223  A    between atoms: _545  and  _546
REMARK  224  A    between atoms: _545  and  _548
REMARK  225  A    between atoms: _548  and  _549
REMARK  226  A    between atoms: _549  and  _550
REMARK                            x       y       z     vdW  Elec       q    Type
REMARK                         _______ _______ _______ _____ _____    ______ ____
ROOT
ATOM      1  CA  MET A   1       6.230 -27.423  24.574  0.00  0.00    +0.134 C 
ENDROOT
BRANCH   1   2
ATOM      2  N   MET A   1       5.200 -26.427  24.313  0.00  0.00    -0.239 NA
ATOM      3  H   MET A   1       5.417 -25.584  23.744  0.00  0.00    +0.142 HD
ENDBRANCH   1   2
BRANCH   1   4
ATOM      4  C   MET A   1       6.619 -27.448  26.047  0.00  0.00    +0.224 C 
ATOM      5  O   MET A   1       6.922 -28.505  26.596  0.00  0.00    -0.287 OA
ENDBRANCH   1   4
BRANCH   1   6
ATOM      6  CB  MET A   1       7.448 -27.219  23.666  0.00  0.00    +0.037 C 
BRANCH   6   7
ATOM      7  CG  MET A   1       7.102 -27.472  22.197  0.00  0.00    +0.059 C 
BRANCH   7   8
ATOM      8  SD  MET A   1       8.532 -27.614  21.117  0.00  0.00    -0.139 S 
ATOM      9  CE  MET A   1       9.372 -26.051  21.404  0.00  0.00    +0.069 C 
ENDBRANCH   7   8
ENDBRANCH   6   7
ENDBRANCH   1   6
TORSDOF 5
REMARK  Name = ../refined-set-2016/3umo/3umo_pocket.pdb
REMARK  226 active torsions:
REMARK  status: ('A' for Active; 'I' for Inactive)
REMARK    1  A    between atoms: _1  and  _3
REMARK    2  A    between atoms: _3  and  _4
REMARK    3  A    between atoms: _6  and  _8
REMARK    4  A    between atoms: _8  and  _9
REMARK    5  A    between atoms: _8  and  _11
REMARK    6  A    between atoms: _11  and  _12
REMARK    7  A    between atoms: _17  and  _19
REMARK    8  A    between atoms: _19  and  _20
REMARK    9  A    between atoms: _19  and  _22
REMARK   10  A    between atoms: _22  and  _23
REMARK   11  A    between atoms: _23  and  _24
REMARK   12  A    between atoms: _24  and  _25
REMARK   13  A    between atoms: _34  and  _36
REMARK   14  A    between atoms: _36  and  _37
REMARK   15  A    between atoms: _36  and  _39
REMARK   16  A    between atoms: _39  and  _40
REMARK   17  A    between atoms: _42  and  _44
REMARK   18  A    between atoms: _44  and  _45
REMARK   19  A    between atoms: _44  and  _47
REMARK   20  A    between atoms: _47  and  _48
REMARK   21  A    between atoms: _51  and  _53
REMARK   22  A    between atoms: _53  and  _54
REMARK   23  A    between atoms: _53  and  _56
REMARK   24  A    between atoms: _56  and  _57
REMARK   25  A    between atoms: _59  and  _61
REMARK   26  A    between atoms: _61  and  _62
REMARK   27  A    between atoms: _61  and  _64
REMARK   28  A    between atoms: _64  and  _65
REMARK   29  A    between atoms: _65  and  _66
REMARK   30  A    between atoms: _66  and  _67
REMARK   31  A    between atoms: _67  and  _68
REMARK   32  A    between atoms: _73  and  _74
REMARK   33  A    between atoms: _79  and  _81
REMARK   34  A    between atoms: _81  and  _82
REMARK   35  A    between atoms: _81  and  _84
REMARK   36  A    between atoms: _84  and  _85
REMARK   37  A    between atoms: _90  and  _92
REMARK   38  A    between atoms: _92  and  _93
REMARK   39  A    between atoms: _92  and  _95
REMARK   40  A    between atoms: _95  and  _96
REMARK   41  A    between atoms: _96  and  _97
REMARK   42  A    between atoms: _102  and  _104
REMARK   43  A    between atoms: _104  and  _105
REMARK   44  A    between atoms: _104  and  _107
REMARK   45  A    between atoms: _107  and  _108
REMARK   46  A    between atoms: _108  and  _109
REMARK   47  A    between atoms: _109  and  _110
REMARK   48  A    between atoms: _110  and  _111
REMARK   49  A    between atoms: _115  and  _117
REMARK   50  A    between atoms: _117  and  _118
REMARK   51  A    between atoms: _117  and  _120
REMARK   52  A    between atoms: _120  and  _121
REMARK   53  A    between atoms: _121  and  _122
REMARK   54  A    between atoms: _125  and  _127
REMARK   55  A    between atoms: _127  and  _128
REMARK   56  A    between atoms: _127  and  _130
REMARK   57  A    between atoms: _133  and  _135
REMARK   58  A    between atoms: _135  and  _136
REMARK   59  A    between atoms: _135  and  _138
REMARK   60  A    between atoms: _141  and  _143
REMARK   61  A    between atoms: _143  and  _144
REMARK   62  A    between atoms: _143  and  _146
REMARK   63  A    between atoms: _146  and  _147
REMARK   64  A    between atoms: _149  and  _151
REMARK   65  A    between atoms: _151  and  _152
REMARK   66  A    between atoms: _151  and  _154
REMARK   67  A    between atoms: _154  and  _155
REMARK   68  A    between atoms: _158  and  _160
REMARK   69  A    between atoms: _160  and  _161
REMARK   70  A    between atoms: _164  and  _165
REMARK   71  A    between atoms: _170  and  _172
REMARK   72  A    between atoms: _172  and  _173
REMARK   73  A    between atoms: _172  and  _175
REMARK   74  A    between atoms: _175  and  _176
REMARK   75  A    between atoms: _176  and  _177
REMARK   76  A    between atoms: _182  and  _184
REMARK   77  A    between atoms: _184  and  _185
REMARK   78  A    between atoms: _187  and  _189
REMARK   79  A    between atoms: _189  and  _190
REMARK   80  A    between atoms: _193  and  _195
REMARK   81  A    between atoms: _195  and  _196
REMARK   82  A    between atoms: _195  and  _198
REMARK   83  A    between atoms: _198  and  _199
REMARK   84  A    between atoms: _202  and  _204
REMARK   85  A    between atoms: _204  and  _205
REMARK   86  A    between atoms: _204  and  _207
REMARK   87  A    between atoms: _210  and  _212
REMARK   88  A    between atoms: _212  and  _213
REMARK   89  A    between atoms: _212  and  _215
REMARK   90  A    between atoms: _219  and  _220
REMARK   91  A    between atoms: _226  and  _227
REMARK   92  A    between atoms: _233  and  _234
REMARK   93  A    between atoms: _239  and  _241
REMARK   94  A    between atoms: _241  and  _242
REMARK   95  A    between atoms: _241  and  _244
REMARK   96  A    between atoms: _247  and  _249
REMARK   97  A    between atoms: _249  and  _250
REMARK   98  A    between atoms: _249  and  _252
REMARK   99  A    between atoms: _252  and  _253
REMARK  100  A    between atoms: _253  and  _254
REMARK  101  A    between atoms: _254  and  _255
REMARK  102  A    between atoms: _255  and  _256
REMARK  103  A    between atoms: _260  and  _262
REMARK  104  A    between atoms: _262  and  _263
REMARK  105  A    between atoms: _262  and  _265
REMARK  106  A    between atoms: _265  and  _266
REMARK  107  A    between atoms: _268  and  _270
REMARK  108  A    between atoms: _270  and  _271
REMARK  109  A    between atoms: _270  and  _273
REMARK  110  A    between atoms: _273  and  _274
REMARK  111  A    between atoms: _274  and  _275
REMARK  112  A    between atoms: _280  and  _282
REMARK  113  A    between atoms: _282  and  _283
REMARK  114  A    between atoms: _282  and  _285
REMARK  115  A    between atoms: _285  and  _286
REMARK  116  A    between atoms: _288  and  _290
REMARK  117  A    between atoms: _290  and  _291
REMARK  118  A    between atoms: _290  and  _293
REMARK  119  A    between atoms: _293  and  _294
REMARK  120  A    between atoms: _297  and  _299
REMARK  121  A    between atoms: _299  and  _300
REMARK  122  A    between atoms: _299  and  _302
REMARK  123  A    between atoms: _305  and  _307
REMARK  124  A    between atoms: _307  and  _308
REMARK  125  A    between atoms: _310  and  _312
REMARK  126  A    between atoms: _312  and  _313
REMARK  127  A    between atoms: _316  and  _318
REMARK  128  A    between atoms: _318  and  _319
REMARK  129  A    between atoms: _321  and  _323
REMARK  130  A    between atoms: _323  and  _324
REMARK  131  A    between atoms: _323  and  _326
REMARK  132  A    between atoms: _326  and  _327
REMARK  133  A    between atoms: _330  and  _332
REMARK  134  A    between atoms: _332  and  _333
REMARK  135  A    between atoms: _332  and  _335
REMARK  136  A    between atoms: _335  and  _336
REMARK  137  A    between atoms: _338  and  _340
REMARK  138  A    between atoms: _340  and  _341
REMARK  139  A    between atoms: _340  and  _343
REMARK  140  A    between atoms: _343  and  _344
REMARK  141  A    between atoms: _344  and  _345
REMARK  142  A    between atoms: _347  and  _349
REMARK  143  A    between atoms: _349  and  _350
REMARK  144  A    between atoms: _349  and  _352
REMARK  145  A    between atoms: _355  and  _357
REMARK  146  A    between atoms: _357  and  _358
REMARK  147  A    between atoms: _357  and  _360
REMARK  148  A    between atoms: _360  and  _361
REMARK  149  A    between atoms: _361  and  _362
REMARK  150  A    between atoms: _364  and  _366
REMARK  151  A    between atoms: _366  and  _367
REMARK  152  A    between atoms: _366  and  _369
REMARK  153  A    between atoms: _372  and  _374
REMARK  154  A    between atoms: _374  and  _375
REMARK  155  A    between atoms: _374  and  _377
REMARK  156  A    between atoms: _377  and  _378
REMARK  157  A    between atoms: _378  and  _379
REMARK  158  A    between atoms: _379  and  _380
REMARK  159  A    between atoms: _389  and  _391
REMARK  160  A    between atoms: _391  and  _392
REMARK  161  A    between atoms: _391  and  _394
REMARK  162  A    between atoms: _394  and  _395
REMARK  163  A    between atoms: _401  and  _403
REMARK  164  A    between atoms: _403  and  _404
REMARK  165  A    between atoms: _406  and  _408
REMARK  166  A    between atoms: _408  and  _409
REMARK  167  A    between atoms: _408  and  _411
REMARK  168  A    between atoms: _414  and  _416
REMARK  169  A    between atoms: _416  and  _417
REMARK  170  A    between atoms: _420  and  _422
REMARK  171  A    between atoms: _422  and  _423
REMARK  172  A    between atoms: _426  and  _428
REMARK  173  A    between atoms: _428  and  _429
REMARK  174  A    between atoms: _431  and  _433
REMARK  175  A    between atoms: _433  and  _434
REMARK  176  A    between atoms: _433  and  _436
REMARK  177  A    between atoms: _436  and  _437
REMARK  178  A    between atoms: _439  and  _441
REMARK  179  A    between atoms: _441  and  _442
REMARK  180  A    between atoms: _445  and  _447
REMARK  181  A    between atoms: _447  and  _448
REMARK  182  A    between atoms: _451  and  _453
REMARK  183  A    between atoms: _453  and  _454
REMARK  184  A    between atoms: _453  and  _456
REMARK  185  A    between atoms: _456  and  _457
REMARK  186  A    between atoms: _460  and  _462
REMARK  187  A    between atoms: _462  and  _463
REMARK  188  A    between atoms: _462  and  _465
REMARK  189  A    between atoms: _465  and  _466
REMARK  190  A    between atoms: _469  and  _471
REMARK  191  A    between atoms: _471  and  _472
REMARK  192  A    between atoms: _471  and  _474
REMARK  193  A    between atoms: _474  and  _475
REMARK  194  A    between atoms: _478  and  _480
REMARK  195  A    between atoms: _480  and  _481
REMARK  196  A    between atoms: _480  and  _483
REMARK  197  A    between atoms: _483  and  _484
REMARK  198  A    between atoms: _487  and  _489
REMARK  199  A    between atoms: _489  and  _490
REMARK  200  A    between atoms: _489  and  _492
REMARK  201  A    between atoms: _492  and  _493
REMARK  202  A    between atoms: _496  and  _498
REMARK  203  A    between atoms: _498  and  _499
REMARK  204  A    between atoms: _498  and  _501
REMARK  205  A    between atoms: _501  and  _502
REMARK  206  A    between atoms: _502  and  _503
REMARK  207  A    between atoms: _506  and  _508
REMARK  208  A    between atoms: _508  and  _509
REMARK  209  A    between atoms: _511  and  _513
REMARK  210  A    between atoms: _513  and  _514
REMARK  211  A    between atoms: _513  and  _516
REMARK  212  A    between atoms: _516  and  _517
REMARK  213  A    between atoms: _517  and  _518
REMARK  214  A    between atoms: _518  and  _519
REMARK  215  A    between atoms: _519  and  _520
REMARK  216  A    between atoms: _524  and  _526
REMARK  217  A    between atoms: _526  and  _527
REMARK  218  A    between atoms: _526  and  _529
REMARK  219  A    between atoms: _529  and  _530
REMARK  220  A    between atoms: _530  and  _531
REMARK  221  A    between atoms: _537  and  _538
REMARK  222  A    between atoms: _543  and  _545
REMARK  223  A    between atoms: _545  and  _546
REMARK  224  A    between atoms: _545  and  _548
REMARK  225  A    between atoms: _548  and  _549
REMARK  226  A    between atoms: _549  and  _550
REMARK                            x       y       z     vdW  Elec       q    Type
REMARK                         _______ _______ _______ _____ _____    ______ ____
ROOT
ATOM      1  CA  ALA A   6      -0.186 -27.273  16.991  0.00  0.00    +0.149 C 
ATOM      2  CB  ALA A   6      -0.934 -28.327  17.820  0.00  0.00    +0.031 C 
ENDROOT
BRANCH   1   3
ATOM      3  C   ALA A   6      -0.450 -25.869  17.530  0.00  0.00    +0.241 C 
ATOM      4  N   ALA A   7       0.227 -25.506  18.615  0.00  0.00    -0.297 N 
ATOM      5  H   ALA A   7       0.902 -26.170  19.046  0.00  0.00    +0.150 HD
ATOM      6  O   ALA A   6      -1.254 -25.123  16.964  0.00  0.00    -0.273 OA
BRANCH   4   7
ATOM      7  CA  ALA A   7       0.034 -24.183  19.210  0.00  0.00    +0.149 C 
ATOM      8  CB  ALA A   7       0.616 -24.137  20.612  0.00  0.00    +0.031 C 
BRANCH   7   9
ATOM      9  C   ALA A   7       0.634 -23.077  18.352  0.00  0.00    +0.241 C 
ATOM     10  O   ALA A   7       0.033 -22.008  18.189  0.00  0.00    -0.273 OA
ATOM     11  N   GLY A   8       1.840 -23.311  17.834  0.00  0.00    -0.295 N 
ATOM     12  H   GLY A   8       2.331 -24.200  18.056  0.00  0.00    +0.150 HD
BRANCH  11  13
ATOM     13  CA  GLY A   8       2.476 -22.339  16.963  0.00  0.00    +0.176 C 
BRANCH  13  14
ATOM     14  C   GLY A   8       1.599 -22.019  15.756  0.00  0.00    +0.243 C 
ATOM     15  O   GLY A   8       1.381 -20.858  15.409  0.00  0.00    -0.273 OA
ATOM     16  N   SER A   9       1.088 -23.063  15.113  0.00  0.00    -0.295 N 
ATOM     17  H   SER A   9       1.280 -24.024  15.461  0.00  0.00    +0.150 HD
BRANCH  16  18
ATOM     18  CA  SER A   9       0.264 -22.880  13.929  0.00  0.00    +0.178 C 
BRANCH  18  19
ATOM     19  C   SER A   9      -1.130 -22.356  14.291  0.00  0.00    +0.243 C 
ATOM     20  N   ALA A  10      -1.630 -22.730  15.465  0.00  0.00    -0.297 N 
ATOM     21  H   ALA A  10      -1.112 -23.415  16.051  0.00  0.00    +0.150 HD
ATOM     22  O   SER A   9      -1.727 -21.599  13.527  0.00  0.00    -0.273 OA
BRANCH  20  23
ATOM     23  CA  ALA A  10      -2.900 -22.187  15.939  0.00  0.00    +0.149 C 
ATOM     24  CB  ALA A  10      -3.298 -22.825  17.261  0.00  0.00    +0.031 C 
BRANCH  23  25
ATOM     25  C   ALA A  10      -2.774 -20.677  16.095  0.00  0.00    +0.241 C 
ATOM     26  N   ALA A  11      -1.626 -20.213  16.571  0.00  0.00    -0.297 N 
ATOM     27  H   ALA A  11      -0.873 -20.878  16.841  0.00  0.00    +0.150 HD
ATOM     28  O   ALA A  10      -3.699 -19.933  15.763  0.00  0.00    -0.273 OA
BRANCH  26  29
ATOM     29  CA  ALA A  11      -1.411 -18.781  16.718  0.00  0.00    +0.149 C 
ATOM     30  CB  ALA A  11      -0.042 -18.503  17.310  0.00  0.00    +0.031 C 
BRANCH  29  31
ATOM     31  C   ALA A  11      -1.576 -18.048  15.388  0.00  0.00    +0.241 C 
ATOM     32  O   ALA A  11      -2.093 -16.938  15.348  0.00  0.00    -0.273 OA
ATOM     33  N   THR A  12      -1.131 -18.672  14.303  0.00  0.00    -0.295 N 
ATOM     34  H   THR A  12      -0.750 -19.636  14.388  0.00  0.00    +0.150 HD
BRANCH  33  35
ATOM     35  CA  THR A  12      -1.167 -18.029  12.995  0.00  0.00    +0.176 C 
BRANCH  35  36
ATOM     36  C   THR A  12      -2.578 -17.874  12.438  0.00  0.00    +0.243 C 
ATOM     37  N   LEU A  13      -3.547 -18.547  13.050  0.00  0.00    -0.298 N 
ATOM     38  H   LEU A  13      -3.324 -19.129  13.882  0.00  0.00    +0.150 HD
ATOM     39  O   THR A  12      -2.782 -17.157  11.462  0.00  0.00    -0.273 OA
BRANCH  37  40
ATOM     40  CA  LEU A  13      -4.927 -18.476  12.563  0.00  0.00    +0.137 C 
BRANCH  40  41
ATOM     41  C   LEU A  13      -5.645 -17.205  13.004  0.00  0.00    +0.227 C 
ATOM     42  O   LEU A  13      -6.647 -16.805  12.415  0.00  0.00    -0.286 OA
ENDBRANCH  40  41
BRANCH  40  43
ATOM     43  CB  LEU A  13      -5.728 -19.689  13.034  0.00  0.00    +0.028 C 
BRANCH  43  44
ATOM     44  CG  LEU A  13      -5.124 -21.022  12.620  0.00  0.00    +0.002 C 
ATOM     45  CD2 LEU A  13      -5.951 -22.174  13.185  0.00  0.00    +0.000 C 
ATOM     46  CD1 LEU A  13      -5.029 -21.093  11.101  0.00  0.00    +0.000 C 
ENDBRANCH  43  44
ENDBRANCH  40  43
ENDBRANCH  37  40
ENDBRANCH  35  36
BRANCH  35  47
ATOM     47  CB  THR A  12      -0.304 -18.772  11.956  0.00  0.00    +0.137 C 
ATOM     48  CG2 THR A  12       1.053 -19.119  12.537  0.00  0.00    +0.034 C 
BRANCH  47  49
ATOM     49  OG1 THR A  12      -0.973 -19.968  11.542  0.00  0.00    -0.382 OA
ATOM     50  HG1 THR A  12      -1.118 -20.552  12.328  0.00  0.00    +0.210 HD
ENDBRANCH  47  49
ENDBRANCH  35  47
ENDBRANCH  33  35
ENDBRANCH  29  31
ENDBRANCH  26  29
ENDBRANCH  23  25
ENDBRANCH  20  23
ENDBRANCH  18  19
BRANCH  18  51
ATOM     51  CB  SER A   9       0.200 -24.175  13.117  0.00  0.00    +0.166 C 
BRANCH  51  52
ATOM     52  OG  SER A   9       1.495 -24.530  12.634  0.00  0.00    -0.380 OA
ATOM     53  H   SER A   9       1.840 -23.805  12.055  0.00  0.00    +0.211 HD
ENDBRANCH  51  52
ENDBRANCH  18  51
ENDBRANCH  16  18
ENDBRANCH  13  14
ENDBRANCH  11  13
ENDBRANCH   7   9
ENDBRANCH   4   7
ENDBRANCH   1   3
BRANCH   1  55
ATOM     54  C   VAL A   5       2.063 -26.798  16.207  0.00  0.00    +0.241 C 
ATOM     55  N   ALA A   6       1.247 -27.566  16.927  0.00  0.00    -0.297 N 
ATOM     56  H   ALA A   6       1.631 -28.380  17.448  0.00  0.00    +0.150 HD
ATOM     57  O   VAL A   5       1.669 -25.827  15.554  0.00  0.00    -0.273 OA
BRANCH  54  58
ATOM     58  CA  VAL A   5       3.545 -27.166  16.224  0.00  0.00    +0.149 C 
BRANCH  58  61
ATOM     59  C   GLY A   4       3.930 -26.676  18.568  0.00  0.00    +0.243 C 
ATOM     60  O   GLY A   4       3.600 -25.497  18.404  0.00  0.00    -0.273 OA
ATOM     61  N   VAL A   5       3.966 -27.551  17.567  0.00  0.00    -0.297 N 
ATOM     62  H   VAL A   5       4.298 -28.521  17.743  0.00  0.00    +0.150 HD
BRANCH  59  63
ATOM     63  CA  GLY A   4       4.343 -27.189  19.942  0.00  0.00    +0.176 C 
BRANCH  63  65
ATOM     64  C   PHE A   3       2.353 -28.525  20.366  0.00  0.00    +0.241 C 
ATOM     65  N   GLY A   4       3.680 -28.440  20.283  0.00  0.00    -0.295 N 
ATOM     66  H   GLY A   4       4.256 -29.287  20.466  0.00  0.00    +0.150 HD
ATOM     67  O   PHE A   3       1.609 -27.554  20.213  0.00  0.00    -0.273 OA
BRANCH  64  68
ATOM     68  CA  PHE A   3       1.779 -29.913  20.633  0.00  0.00    +0.153 C 
BRANCH  68  70
ATOM     69  C   ARG A   2       2.584 -30.974  18.605  0.00  0.00    +0.241 C 
ATOM     70  N   PHE A   3       2.572 -30.912  19.933  0.00  0.00    -0.297 N 
ATOM     71  H   PHE A   3       3.139 -31.590  20.481  0.00  0.00    +0.150 HD
ATOM     72  O   ARG A   2       1.948 -30.205  17.898  0.00  0.00    -0.273 OA
BRANCH  69  73
ATOM     73  CA  ARG A   2       3.432 -32.075  17.976  0.00  0.00    +0.149 C 
BRANCH  73  75
ATOM     74  C   VAL A   1       5.563 -31.078  18.528  0.00  0.00    +0.238 C 
ATOM     75  N   ARG A   2       4.761 -32.136  18.570  0.00  0.00    -0.297 N 
ATOM     76  H   ARG A   2       5.083 -33.012  19.029  0.00  0.00    +0.150 HD
ATOM     77  O   VAL A   1       5.242 -30.020  17.973  0.00  0.00    -0.274 OA
BRANCH  74  78
ATOM     78  CA  VAL A   1       6.911 -31.216  19.232  0.00  0.00    +0.145 C 
BRANCH  78  79
ATOM     79  CB  VAL A   1       7.972 -31.856  18.295  0.00  0.00    +0.025 C 
ATOM     80  CG2 VAL A   1       9.358 -31.814  18.952  0.00  0.00    +0.002 C 
ATOM     81  CG1 VAL A   1       8.011 -31.151  16.947  0.00  0.00    +0.002 C 
ENDBRANCH  78  79
BRANCH  78  82
ATOM     82  N   VAL A   1       6.774 -31.952  20.492  0.00  0.00    -0.238 NA
ATOM     83  H   VAL A   1       7.182 -32.905  20.576  0.00  0.00    +0.142 HD
ENDBRANCH  78  82
ENDBRANCH  74  78
ENDBRANCH  73  75
BRANCH  73  84
ATOM     84  CB  ARG A   2       2.701 -33.406  18.116  0.00  0.00    +0.033 C 
BRANCH  84  85
ATOM     85  CG  ARG A   2       3.183 -34.484  17.185  0.00  0.00    +0.045 C 
BRANCH  85  86
ATOM     86  CD  ARG A   2       2.206 -35.661  17.216  0.00  0.00    +0.174 C 
BRANCH  86  87
ATOM     87  NE  ARG A   2       2.754 -36.894  16.654  0.00  0.00    -0.265 N 
ATOM     88  HE  ARG A   2       2.921 -37.688  17.304  0.00  0.00    +0.259 HD
ATOM     89  CZ  ARG A   2       3.055 -37.074  15.371  0.00  0.00    +0.342 C 
ATOM     90  NH2 ARG A   2       3.542 -38.239  14.966  0.00  0.00    -0.292 N 
ATOM     91 HH21 ARG A   2       3.687 -39.008  15.651  0.00  0.00    +0.255 HD
ATOM     92 HH22 ARG A   2       3.779 -38.384  13.964  0.00  0.00    +0.255 HD
ATOM     93  NH1 ARG A   2       2.879 -36.095  14.491  0.00  0.00    -0.292 N 
ATOM     94 HH11 ARG A   2       2.503 -35.177  14.803  0.00  0.00    +0.255 HD
ATOM     95 HH12 ARG A   2       3.118 -36.246  13.490  0.00  0.00    +0.255 HD
ENDBRANCH  86  87
ENDBRANCH  85  86
ENDBRANCH  84  85
ENDBRANCH  73  84
ENDBRANCH  69  73
ENDBRANCH  68  70
BRANCH  68  96
ATOM     96  CB  PHE A   3       1.753 -30.206  22.134  0.00  0.00    +0.055 C 
BRANCH  96  97
ATOM     97  CG  PHE A   3       0.656 -29.497  22.873  0.00  0.00    -0.020 A 
ATOM     98  CD2 PHE A   3       0.940 -28.692  23.968  0.00  0.00    -0.004 A 
ATOM     99  CE2 PHE A   3      -0.084 -28.039  24.656  0.00  0.00    -0.000 A 
ATOM    100  CZ  PHE A   3      -1.394 -28.200  24.256  0.00  0.00    -0.000 A 
ATOM    101  CE1 PHE A   3      -1.687 -29.011  23.172  0.00  0.00    -0.000 A 
ATOM    102  CD1 PHE A   3      -0.666 -29.656  22.490  0.00  0.00    -0.004 A 
ENDBRANCH  96  97
ENDBRANCH  68  96
ENDBRANCH  64  68
ENDBRANCH  63  65
ENDBRANCH  59  63
ENDBRANCH  58  61
BRANCH  58 103
ATOM    103  CB  VAL A   5       3.851 -28.270  15.182  0.00  0.00    +0.027 C 
ATOM    104  CG2 VAL A   5       5.342 -28.297  14.893  0.00  0.00    +0.002 C 
ATOM    105  CG1 VAL A   5       3.057 -28.045  13.888  0.00  0.00    +0.002 C 
ENDBRANCH  58 103
ENDBRANCH  54  58
ENDBRANCH   1  55
TORSDOF 40
REMARK  Name = ../refined-set-2016/3umo/3umo_pocket.pdb
REMARK  226 active torsions:
REMARK  status: ('A' for Active; 'I' for Inactive)
REMARK    1  A    between atoms: _1  and  _3
REMARK    2  A    between atoms: _3  and  _4
REMARK    3  A    between atoms: _6  and  _8
REMARK    4  A    between atoms: _8  and  _9
REMARK    5  A    between atoms: _8  and  _11
REMARK    6  A    between atoms: _11  and  _12
REMARK    7  A    between atoms: _17  and  _19
REMARK    8  A    between atoms: _19  and  _20
REMARK    9  A    between atoms: _19  and  _22
REMARK   10  A    between atoms: _22  and  _23
REMARK   11  A    between atoms: _23  and  _24
REMARK   12  A    between atoms: _24  and  _25
REMARK   13  A    between atoms: _34  and  _36
REMARK   14  A    between atoms: _36  and  _37
REMARK   15  A    between atoms: _36  and  _39
REMARK   16  A    between atoms: _39  and  _40
REMARK   17  A    between atoms: _42  and  _44
REMARK   18  A    between atoms: _44  and  _45
REMARK   19  A    between atoms: _44  and  _47
REMARK   20  A    between atoms: _47  and  _48
REMARK   21  A    between atoms: _51  and  _53
REMARK   22  A    between atoms: _53  and  _54
REMARK   23  A    between atoms: _53  and  _56
REMARK   24  A    between atoms: _56  and  _57
REMARK   25  A    between atoms: _59  and  _61
REMARK   26  A    between atoms: _61  and  _62
REMARK   27  A    between atoms: _61  and  _64
REMARK   28  A    between atoms: _64  and  _65
REMARK   29  A    between atoms: _65  and  _66
REMARK   30  A    between atoms: _66  and  _67
REMARK   31  A    between atoms: _67  and  _68
REMARK   32  A    between atoms: _73  and  _74
REMARK   33  A    between atoms: _79  and  _81
REMARK   34  A    between atoms: _81  and  _82
REMARK   35  A    between atoms: _81  and  _84
REMARK   36  A    between atoms: _84  and  _85
REMARK   37  A    between atoms: _90  and  _92
REMARK   38  A    between atoms: _92  and  _93
REMARK   39  A    between atoms: _92  and  _95
REMARK   40  A    between atoms: _95  and  _96
REMARK   41  A    between atoms: _96  and  _97
REMARK   42  A    between atoms: _102  and  _104
REMARK   43  A    between atoms: _104  and  _105
REMARK   44  A    between atoms: _104  and  _107
REMARK   45  A    between atoms: _107  and  _108
REMARK   46  A    between atoms: _108  and  _109
REMARK   47  A    between atoms: _109  and  _110
REMARK   48  A    between atoms: _110  and  _111
REMARK   49  A    between atoms: _115  and  _117
REMARK   50  A    between atoms: _117  and  _118
REMARK   51  A    between atoms: _117  and  _120
REMARK   52  A    between atoms: _120  and  _121
REMARK   53  A    between atoms: _121  and  _122
REMARK   54  A    between atoms: _125  and  _127
REMARK   55  A    between atoms: _127  and  _128
REMARK   56  A    between atoms: _127  and  _130
REMARK   57  A    between atoms: _133  and  _135
REMARK   58  A    between atoms: _135  and  _136
REMARK   59  A    between atoms: _135  and  _138
REMARK   60  A    between atoms: _141  and  _143
REMARK   61  A    between atoms: _143  and  _144
REMARK   62  A    between atoms: _143  and  _146
REMARK   63  A    between atoms: _146  and  _147
REMARK   64  A    between atoms: _149  and  _151
REMARK   65  A    between atoms: _151  and  _152
REMARK   66  A    between atoms: _151  and  _154
REMARK   67  A    between atoms: _154  and  _155
REMARK   68  A    between atoms: _158  and  _160
REMARK   69  A    between atoms: _160  and  _161
REMARK   70  A    between atoms: _164  and  _165
REMARK   71  A    between atoms: _170  and  _172
REMARK   72  A    between atoms: _172  and  _173
REMARK   73  A    between atoms: _172  and  _175
REMARK   74  A    between atoms: _175  and  _176
REMARK   75  A    between atoms: _176  and  _177
REMARK   76  A    between atoms: _182  and  _184
REMARK   77  A    between atoms: _184  and  _185
REMARK   78  A    between atoms: _187  and  _189
REMARK   79  A    between atoms: _189  and  _190
REMARK   80  A    between atoms: _193  and  _195
REMARK   81  A    between atoms: _195  and  _196
REMARK   82  A    between atoms: _195  and  _198
REMARK   83  A    between atoms: _198  and  _199
REMARK   84  A    between atoms: _202  and  _204
REMARK   85  A    between atoms: _204  and  _205
REMARK   86  A    between atoms: _204  and  _207
REMARK   87  A    between atoms: _210  and  _212
REMARK   88  A    between atoms: _212  and  _213
REMARK   89  A    between atoms: _212  and  _215
REMARK   90  A    between atoms: _219  and  _220
REMARK   91  A    between atoms: _226  and  _227
REMARK   92  A    between atoms: _233  and  _234
REMARK   93  A    between atoms: _239  and  _241
REMARK   94  A    between atoms: _241  and  _242
REMARK   95  A    between atoms: _241  and  _244
REMARK   96  A    between atoms: _247  and  _249
REMARK   97  A    between atoms: _249  and  _250
REMARK   98  A    between atoms: _249  and  _252
REMARK   99  A    between atoms: _252  and  _253
REMARK  100  A    between atoms: _253  and  _254
REMARK  101  A    between atoms: _254  and  _255
REMARK  102  A    between atoms: _255  and  _256
REMARK  103  A    between atoms: _260  and  _262
REMARK  104  A    between atoms: _262  and  _263
REMARK  105  A    between atoms: _262  and  _265
REMARK  106  A    between atoms: _265  and  _266
REMARK  107  A    between atoms: _268  and  _270
REMARK  108  A    between atoms: _270  and  _271
REMARK  109  A    between atoms: _270  and  _273
REMARK  110  A    between atoms: _273  and  _274
REMARK  111  A    between atoms: _274  and  _275
REMARK  112  A    between atoms: _280  and  _282
REMARK  113  A    between atoms: _282  and  _283
REMARK  114  A    between atoms: _282  and  _285
REMARK  115  A    between atoms: _285  and  _286
REMARK  116  A    between atoms: _288  and  _290
REMARK  117  A    between atoms: _290  and  _291
REMARK  118  A    between atoms: _290  and  _293
REMARK  119  A    between atoms: _293  and  _294
REMARK  120  A    between atoms: _297  and  _299
REMARK  121  A    between atoms: _299  and  _300
REMARK  122  A    between atoms: _299  and  _302
REMARK  123  A    between atoms: _305  and  _307
REMARK  124  A    between atoms: _307  and  _308
REMARK  125  A    between atoms: _310  and  _312
REMARK  126  A    between atoms: _312  and  _313
REMARK  127  A    between atoms: _316  and  _318
REMARK  128  A    between atoms: _318  and  _319
REMARK  129  A    between atoms: _321  and  _323
REMARK  130  A    between atoms: _323  and  _324
REMARK  131  A    between atoms: _323  and  _326
REMARK  132  A    between atoms: _326  and  _327
REMARK  133  A    between atoms: _330  and  _332
REMARK  134  A    between atoms: _332  and  _333
REMARK  135  A    between atoms: _332  and  _335
REMARK  136  A    between atoms: _335  and  _336
REMARK  137  A    between atoms: _338  and  _340
REMARK  138  A    between atoms: _340  and  _341
REMARK  139  A    between atoms: _340  and  _343
REMARK  140  A    between atoms: _343  and  _344
REMARK  141  A    between atoms: _344  and  _345
REMARK  142  A    between atoms: _347  and  _349
REMARK  143  A    between atoms: _349  and  _350
REMARK  144  A    between atoms: _349  and  _352
REMARK  145  A    between atoms: _355  and  _357
REMARK  146  A    between atoms: _357  and  _358
REMARK  147  A    between atoms: _357  and  _360
REMARK  148  A    between atoms: _360  and  _361
REMARK  149  A    between atoms: _361  and  _362
REMARK  150  A    between atoms: _364  and  _366
REMARK  151  A    between atoms: _366  and  _367
REMARK  152  A    between atoms: _366  and  _369
REMARK  153  A    between atoms: _372  and  _374
REMARK  154  A    between atoms: _374  and  _375
REMARK  155  A    between atoms: _374  and  _377
REMARK  156  A    between atoms: _377  and  _378
REMARK  157  A    between atoms: _378  and  _379
REMARK  158  A    between atoms: _379  and  _380
REMARK  159  A    between atoms: _389  and  _391
REMARK  160  A    between atoms: _391  and  _392
REMARK  161  A    between atoms: _391  and  _394
REMARK  162  A    between atoms: _394  and  _395
REMARK  163  A    between atoms: _401  and  _403
REMARK  164  A    between atoms: _403  and  _404
REMARK  165  A    between atoms: _406  and  _408
REMARK  166  A    between atoms: _408  and  _409
REMARK  167  A    between atoms: _408  and  _411
REMARK  168  A    between atoms: _414  and  _416
REMARK  169  A    between atoms: _416  and  _417
REMARK  170  A    between atoms: _420  and  _422
REMARK  171  A    between atoms: _422  and  _423
REMARK  172  A    between atoms: _426  and  _428
REMARK  173  A    between atoms: _428  and  _429
REMARK  174  A    between atoms: _431  and  _433
REMARK  175  A    between atoms: _433  and  _434
REMARK  176  A    between atoms: _433  and  _436
REMARK  177  A    between atoms: _436  and  _437
REMARK  178  A    between atoms: _439  and  _441
REMARK  179  A    between atoms: _441  and  _442
REMARK  180  A    between atoms: _445  and  _447
REMARK  181  A    between atoms: _447  and  _448
REMARK  182  A    between atoms: _451  and  _453
REMARK  183  A    between atoms: _453  and  _454
REMARK  184  A    between atoms: _453  and  _456
REMARK  185  A    between atoms: _456  and  _457
REMARK  186  A    between atoms: _460  and  _462
REMARK  187  A    between atoms: _462  and  _463
REMARK  188  A    between atoms: _462  and  _465
REMARK  189  A    between atoms: _465  and  _466
REMARK  190  A    between atoms: _469  and  _471
REMARK  191  A    between atoms: _471  and  _472
REMARK  192  A    between atoms: _471  and  _474
REMARK  193  A    between atoms: _474  and  _475
REMARK  194  A    between atoms: _478  and  _480
REMARK  195  A    between atoms: _480  and  _481
REMARK  196  A    between atoms: _480  and  _483
REMARK  197  A    between atoms: _483  and  _484
REMARK  198  A    between atoms: _487  and  _489
REMARK  199  A    between atoms: _489  and  _490
REMARK  200  A    between atoms: _489  and  _492
REMARK  201  A    between atoms: _492  and  _493
REMARK  202  A    between atoms: _496  and  _498
REMARK  203  A    between atoms: _498  and  _499
REMARK  204  A    between atoms: _498  and  _501
REMARK  205  A    between atoms: _501  and  _502
REMARK  206  A    between atoms: _502  and  _503
REMARK  207  A    between atoms: _506  and  _508
REMARK  208  A    between atoms: _508  and  _509
REMARK  209  A    between atoms: _511  and  _513
REMARK  210  A    between atoms: _513  and  _514
REMARK  211  A    between atoms: _513  and  _516
REMARK  212  A    between atoms: _516  and  _517
REMARK  213  A    between atoms: _517  and  _518
REMARK  214  A    between atoms: _518  and  _519
REMARK  215  A    between atoms: _519  and  _520
REMARK  216  A    between atoms: _524  and  _526
REMARK  217  A    between atoms: _526  and  _527
REMARK  218  A    between atoms: _526  and  _529
REMARK  219  A    between atoms: _529  and  _530
REMARK  220  A    between atoms: _530  and  _531
REMARK  221  A    between atoms: _537  and  _538
REMARK  222  A    between atoms: _543  and  _545
REMARK  223  A    between atoms: _545  and  _546
REMARK  224  A    between atoms: _545  and  _548
REMARK  225  A    between atoms: _548  and  _549
REMARK  226  A    between atoms: _549  and  _550
REMARK                            x       y       z     vdW  Elec       q    Type
REMARK                         _______ _______ _______ _____ _____    ______ ____
ROOT
ATOM      1  CA  LEU A   1      -1.621 -15.964  20.491  0.00  0.00    +0.133 C 
ENDROOT
BRANCH   1   2
ATOM      2  N   LEU A   1      -2.318 -14.694  20.398  0.00  0.00    -0.239 NA
ATOM      3  H   LEU A   1      -2.691 -14.255  21.264  0.00  0.00    +0.142 HD
ENDBRANCH   1   2
BRANCH   1   4
ATOM      4  C   LEU A   1      -2.563 -17.119  20.197  0.00  0.00    +0.224 C 
ATOM      5  O   LEU A   1      -3.693 -16.919  19.763  0.00  0.00    -0.287 OA
ENDBRANCH   1   4
BRANCH   1   6
ATOM      6  CB  LEU A   1      -0.999 -16.126  21.877  0.00  0.00    +0.025 C 
BRANCH   6   7
ATOM      7  CG  LEU A   1      -0.184 -14.924  22.352  0.00  0.00    +0.002 C 
ATOM      8  CD2 LEU A   1       0.197 -15.066  23.813  0.00  0.00    +0.000 C 
ATOM      9  CD1 LEU A   1       1.050 -14.750  21.488  0.00  0.00    +0.000 C 
ENDBRANCH   6   7
ENDBRANCH   1   6
TORSDOF 4
REMARK  Name = ../refined-set-2016/3umo/3umo_pocket.pdb
REMARK  226 active torsions:
REMARK  status: ('A' for Active; 'I' for Inactive)
REMARK    1  A    between atoms: _1  and  _3
REMARK    2  A    between atoms: _3  and  _4
REMARK    3  A    between atoms: _6  and  _8
REMARK    4  A    between atoms: _8  and  _9
REMARK    5  A    between atoms: _8  and  _11
REMARK    6  A    between atoms: _11  and  _12
REMARK    7  A    between atoms: _17  and  _19
REMARK    8  A    between atoms: _19  and  _20
REMARK    9  A    between atoms: _19  and  _22
REMARK   10  A    between atoms: _22  and  _23
REMARK   11  A    between atoms: _23  and  _24
REMARK   12  A    between atoms: _24  and  _25
REMARK   13  A    between atoms: _34  and  _36
REMARK   14  A    between atoms: _36  and  _37
REMARK   15  A    between atoms: _36  and  _39
REMARK   16  A    between atoms: _39  and  _40
REMARK   17  A    between atoms: _42  and  _44
REMARK   18  A    between atoms: _44  and  _45
REMARK   19  A    between atoms: _44  and  _47
REMARK   20  A    between atoms: _47  and  _48
REMARK   21  A    between atoms: _51  and  _53
REMARK   22  A    between atoms: _53  and  _54
REMARK   23  A    between atoms: _53  and  _56
REMARK   24  A    between atoms: _56  and  _57
REMARK   25  A    between atoms: _59  and  _61
REMARK   26  A    between atoms: _61  and  _62
REMARK   27  A    between atoms: _61  and  _64
REMARK   28  A    between atoms: _64  and  _65
REMARK   29  A    between atoms: _65  and  _66
REMARK   30  A    between atoms: _66  and  _67
REMARK   31  A    between atoms: _67  and  _68
REMARK   32  A    between atoms: _73  and  _74
REMARK   33  A    between atoms: _79  and  _81
REMARK   34  A    between atoms: _81  and  _82
REMARK   35  A    between atoms: _81  and  _84
REMARK   36  A    between atoms: _84  and  _85
REMARK   37  A    between atoms: _90  and  _92
REMARK   38  A    between atoms: _92  and  _93
REMARK   39  A    between atoms: _92  and  _95
REMARK   40  A    between atoms: _95  and  _96
REMARK   41  A    between atoms: _96  and  _97
REMARK   42  A    between atoms: _102  and  _104
REMARK   43  A    between atoms: _104  and  _105
REMARK   44  A    between atoms: _104  and  _107
REMARK   45  A    between atoms: _107  and  _108
REMARK   46  A    between atoms: _108  and  _109
REMARK   47  A    between atoms: _109  and  _110
REMARK   48  A    between atoms: _110  and  _111
REMARK   49  A    between atoms: _115  and  _117
REMARK   50  A    between atoms: _117  and  _118
REMARK   51  A    between atoms: _117  and  _120
REMARK   52  A    between atoms: _120  and  _121
REMARK   53  A    between atoms: _121  and  _122
REMARK   54  A    between atoms: _125  and  _127
REMARK   55  A    between atoms: _127  and  _128
REMARK   56  A    between atoms: _127  and  _130
REMARK   57  A    between atoms: _133  and  _135
REMARK   58  A    between atoms: _135  and  _136
REMARK   59  A    between atoms: _135  and  _138
REMARK   60  A    between atoms: _141  and  _143
REMARK   61  A    between atoms: _143  and  _144
REMARK   62  A    between atoms: _143  and  _146
REMARK   63  A    between atoms: _146  and  _147
REMARK   64  A    between atoms: _149  and  _151
REMARK   65  A    between atoms: _151  and  _152
REMARK   66  A    between atoms: _151  and  _154
REMARK   67  A    between atoms: _154  and  _155
REMARK   68  A    between atoms: _158  and  _160
REMARK   69  A    between atoms: _160  and  _161
REMARK   70  A    between atoms: _164  and  _165
REMARK   71  A    between atoms: _170  and  _172
REMARK   72  A    between atoms: _172  and  _173
REMARK   73  A    between atoms: _172  and  _175
REMARK   74  A    between atoms: _175  and  _176
REMARK   75  A    between atoms: _176  and  _177
REMARK   76  A    between atoms: _182  and  _184
REMARK   77  A    between atoms: _184  and  _185
REMARK   78  A    between atoms: _187  and  _189
REMARK   79  A    between atoms: _189  and  _190
REMARK   80  A    between atoms: _193  and  _195
REMARK   81  A    between atoms: _195  and  _196
REMARK   82  A    between atoms: _195  and  _198
REMARK   83  A    between atoms: _198  and  _199
REMARK   84  A    between atoms: _202  and  _204
REMARK   85  A    between atoms: _204  and  _205
REMARK   86  A    between atoms: _204  and  _207
REMARK   87  A    between atoms: _210  and  _212
REMARK   88  A    between atoms: _212  and  _213
REMARK   89  A    between atoms: _212  and  _215
REMARK   90  A    between atoms: _219  and  _220
REMARK   91  A    between atoms: _226  and  _227
REMARK   92  A    between atoms: _233  and  _234
REMARK   93  A    between atoms: _239  and  _241
REMARK   94  A    between atoms: _241  and  _242
REMARK   95  A    between atoms: _241  and  _244
REMARK   96  A    between atoms: _247  and  _249
REMARK   97  A    between atoms: _249  and  _250
REMARK   98  A    between atoms: _249  and  _252
REMARK   99  A    between atoms: _252  and  _253
REMARK  100  A    between atoms: _253  and  _254
REMARK  101  A    between atoms: _254  and  _255
REMARK  102  A    between atoms: _255  and  _256
REMARK  103  A    between atoms: _260  and  _262
REMARK  104  A    between atoms: _262  and  _263
REMARK  105  A    between atoms: _262  and  _265
REMARK  106  A    between atoms: _265  and  _266
REMARK  107  A    between atoms: _268  and  _270
REMARK  108  A    between atoms: _270  and  _271
REMARK  109  A    between atoms: _270  and  _273
REMARK  110  A    between atoms: _273  and  _274
REMARK  111  A    between atoms: _274  and  _275
REMARK  112  A    between atoms: _280  and  _282
REMARK  113  A    between atoms: _282  and  _283
REMARK  114  A    between atoms: _282  and  _285
REMARK  115  A    between atoms: _285  and  _286
REMARK  116  A    between atoms: _288  and  _290
REMARK  117  A    between atoms: _290  and  _291
REMARK  118  A    between atoms: _290  and  _293
REMARK  119  A    between atoms: _293  and  _294
REMARK  120  A    between atoms: _297  and  _299
REMARK  121  A    between atoms: _299  and  _300
REMARK  122  A    between atoms: _299  and  _302
REMARK  123  A    between atoms: _305  and  _307
REMARK  124  A    between atoms: _307  and  _308
REMARK  125  A    between atoms: _310  and  _312
REMARK  126  A    between atoms: _312  and  _313
REMARK  127  A    between atoms: _316  and  _318
REMARK  128  A    between atoms: _318  and  _319
REMARK  129  A    between atoms: _321  and  _323
REMARK  130  A    between atoms: _323  and  _324
REMARK  131  A    between atoms: _323  and  _326
REMARK  132  A    between atoms: _326  and  _327
REMARK  133  A    between atoms: _330  and  _332
REMARK  134  A    between atoms: _332  and  _333
REMARK  135  A    between atoms: _332  and  _335
REMARK  136  A    between atoms: _335  and  _336
REMARK  137  A    between atoms: _338  and  _340
REMARK  138  A    between atoms: _340  and  _341
REMARK  139  A    between atoms: _340  and  _343
REMARK  140  A    between atoms: _343  and  _344
REMARK  141  A    between atoms: _344  and  _345
REMARK  142  A    between atoms: _347  and  _349
REMARK  143  A    between atoms: _349  and  _350
REMARK  144  A    between atoms: _349  and  _352
REMARK  145  A    between atoms: _355  and  _357
REMARK  146  A    between atoms: _357  and  _358
REMARK  147  A    between atoms: _357  and  _360
REMARK  148  A    between atoms: _360  and  _361
REMARK  149  A    between atoms: _361  and  _362
REMARK  150  A    between atoms: _364  and  _366
REMARK  151  A    between atoms: _366  and  _367
REMARK  152  A    between atoms: _366  and  _369
REMARK  153  A    between atoms: _372  and  _374
REMARK  154  A    between atoms: _374  and  _375
REMARK  155  A    between atoms: _374  and  _377
REMARK  156  A    between atoms: _377  and  _378
REMARK  157  A    between atoms: _378  and  _379
REMARK  158  A    between atoms: _379  and  _380
REMARK  159  A    between atoms: _389  and  _391
REMARK  160  A    between atoms: _391  and  _392
REMARK  161  A    between atoms: _391  and  _394
REMARK  162  A    between atoms: _394  and  _395
REMARK  163  A    between atoms: _401  and  _403
REMARK  164  A    between atoms: _403  and  _404
REMARK  165  A    between atoms: _406  and  _408
REMARK  166  A    between atoms: _408  and  _409
REMARK  167  A    between atoms: _408  and  _411
REMARK  168  A    between atoms: _414  and  _416
REMARK  169  A    between atoms: _416  and  _417
REMARK  170  A    between atoms: _420  and  _422
REMARK  171  A    between atoms: _422  and  _423
REMARK  172  A    between atoms: _426  and  _428
REMARK  173  A    between atoms: _428  and  _429
REMARK  174  A    between atoms: _431  and  _433
REMARK  175  A    between atoms: _433  and  _434
REMARK  176  A    between atoms: _433  and  _436
REMARK  177  A    between atoms: _436  and  _437
REMARK  178  A    between atoms: _439  and  _441
REMARK  179  A    between atoms: _441  and  _442
REMARK  180  A    between atoms: _445  and  _447
REMARK  181  A    between atoms: _447  and  _448
REMARK  182  A    between atoms: _451  and  _453
REMARK  183  A    between atoms: _453  and  _454
REMARK  184  A    between atoms: _453  and  _456
REMARK  185  A    between atoms: _456  and  _457
REMARK  186  A    between atoms: _460  and  _462
REMARK  187  A    between atoms: _462  and  _463
REMARK  188  A    between atoms: _462  and  _465
REMARK  189  A    between atoms: _465  and  _466
REMARK  190  A    between atoms: _469  and  _471
REMARK  191  A    between atoms: _471  and  _472
REMARK  192  A    between atoms: _471  and  _474
REMARK  193  A    between atoms: _474  and  _475
REMARK  194  A    between atoms: _478  and  _480
REMARK  195  A    between atoms: _480  and  _481
REMARK  196  A    between atoms: _480  and  _483
REMARK  197  A    between atoms: _483  and  _484
REMARK  198  A    between atoms: _487  and  _489
REMARK  199  A    between atoms: _489  and  _490
REMARK  200  A    between atoms: _489  and  _492
REMARK  201  A    between atoms: _492  and  _493
REMARK  202  A    between atoms: _496  and  _498
REMARK  203  A    between atoms: _498  and  _499
REMARK  204  A    between atoms: _498  and  _501
REMARK  205  A    between atoms: _501  and  _502
REMARK  206  A    between atoms: _502  and  _503
REMARK  207  A    between atoms: _506  and  _508
REMARK  208  A    between atoms: _508  and  _509
REMARK  209  A    between atoms: _511  and  _513
REMARK  210  A    between atoms: _513  and  _514
REMARK  211  A    between atoms: _513  and  _516
REMARK  212  A    between atoms: _516  and  _517
REMARK  213  A    between atoms: _517  and  _518
REMARK  214  A    between atoms: _518  and  _519
REMARK  215  A    between atoms: _519  and  _520
REMARK  216  A    between atoms: _524  and  _526
REMARK  217  A    between atoms: _526  and  _527
REMARK  218  A    between atoms: _526  and  _529
REMARK  219  A    between atoms: _529  and  _530
REMARK  220  A    between atoms: _530  and  _531
REMARK  221  A    between atoms: _537  and  _538
REMARK  222  A    between atoms: _543  and  _545
REMARK  223  A    between atoms: _545  and  _546
REMARK  224  A    between atoms: _545  and  _548
REMARK  225  A    between atoms: _548  and  _549
REMARK  226  A    between atoms: _549  and  _550
REMARK                            x       y       z     vdW  Elec       q    Type
REMARK                         _______ _______ _______ _____ _____    ______ ____
ROOT
ATOM      1  CA  ILE A   1      -4.503 -29.201  15.064  0.00  0.00    +0.133 C 
ENDROOT
BRANCH   1   2
ATOM      2  N   ILE A   1      -5.718 -28.901  15.817  0.00  0.00    -0.239 NA
ATOM      3  H   ILE A   1      -5.799 -27.996  16.324  0.00  0.00    +0.142 HD
ENDBRANCH   1   2
BRANCH   1   4
ATOM      4  C   ILE A   1      -3.761 -30.390  15.683  0.00  0.00    +0.224 C 
ATOM      5  O   ILE A   1      -3.328 -31.299  14.972  0.00  0.00    -0.287 OA
ENDBRANCH   1   4
BRANCH   1   6
ATOM      6  CB  ILE A   1      -3.574 -27.976  14.963  0.00  0.00    +0.023 C 
ATOM      7  CG2 ILE A   1      -2.248 -28.372  14.300  0.00  0.00    +0.002 C 
BRANCH   6   8
ATOM      8  CG1 ILE A   1      -4.260 -26.866  14.160  0.00  0.00    +0.002 C 
ATOM      9  CD1 ILE A   1      -3.589 -25.500  14.269  0.00  0.00    +0.000 C 
ENDBRANCH   6   8
ENDBRANCH   1   6
TORSDOF 4
REMARK  Name = ../refined-set-2016/3umo/3umo_pocket.pdb
REMARK  226 active torsions:
REMARK  status: ('A' for Active; 'I' for Inactive)
REMARK    1  A    between atoms: _1  and  _3
REMARK    2  A    between atoms: _3  and  _4
REMARK    3  A    between atoms: _6  and  _8
REMARK    4  A    between atoms: _8  and  _9
REMARK    5  A    between atoms: _8  and  _11
REMARK    6  A    between atoms: _11  and  _12
REMARK    7  A    between atoms: _17  and  _19
REMARK    8  A    between atoms: _19  and  _20
REMARK    9  A    between atoms: _19  and  _22
REMARK   10  A    between atoms: _22  and  _23
REMARK   11  A    between atoms: _23  and  _24
REMARK   12  A    between atoms: _24  and  _25
REMARK   13  A    between atoms: _34  and  _36
REMARK   14  A    between atoms: _36  and  _37
REMARK   15  A    between atoms: _36  and  _39
REMARK   16  A    between atoms: _39  and  _40
REMARK   17  A    between atoms: _42  and  _44
REMARK   18  A    between atoms: _44  and  _45
REMARK   19  A    between atoms: _44  and  _47
REMARK   20  A    between atoms: _47  and  _48
REMARK   21  A    between atoms: _51  and  _53
REMARK   22  A    between atoms: _53  and  _54
REMARK   23  A    between atoms: _53  and  _56
REMARK   24  A    between atoms: _56  and  _57
REMARK   25  A    between atoms: _59  and  _61
REMARK   26  A    between atoms: _61  and  _62
REMARK   27  A    between atoms: _61  and  _64
REMARK   28  A    between atoms: _64  and  _65
REMARK   29  A    between atoms: _65  and  _66
REMARK   30  A    between atoms: _66  and  _67
REMARK   31  A    between atoms: _67  and  _68
REMARK   32  A    between atoms: _73  and  _74
REMARK   33  A    between atoms: _79  and  _81
REMARK   34  A    between atoms: _81  and  _82
REMARK   35  A    between atoms: _81  and  _84
REMARK   36  A    between atoms: _84  and  _85
REMARK   37  A    between atoms: _90  and  _92
REMARK   38  A    between atoms: _92  and  _93
REMARK   39  A    between atoms: _92  and  _95
REMARK   40  A    between atoms: _95  and  _96
REMARK   41  A    between atoms: _96  and  _97
REMARK   42  A    between atoms: _102  and  _104
REMARK   43  A    between atoms: _104  and  _105
REMARK   44  A    between atoms: _104  and  _107
REMARK   45  A    between atoms: _107  and  _108
REMARK   46  A    between atoms: _108  and  _109
REMARK   47  A    between atoms: _109  and  _110
REMARK   48  A    between atoms: _110  and  _111
REMARK   49  A    between atoms: _115  and  _117
REMARK   50  A    between atoms: _117  and  _118
REMARK   51  A    between atoms: _117  and  _120
REMARK   52  A    between atoms: _120  and  _121
REMARK   53  A    between atoms: _121  and  _122
REMARK   54  A    between atoms: _125  and  _127
REMARK   55  A    between atoms: _127  and  _128
REMARK   56  A    between atoms: _127  and  _130
REMARK   57  A    between atoms: _133  and  _135
REMARK   58  A    between atoms: _135  and  _136
REMARK   59  A    between atoms: _135  and  _138
REMARK   60  A    between atoms: _141  and  _143
REMARK   61  A    between atoms: _143  and  _144
REMARK   62  A    between atoms: _143  and  _146
REMARK   63  A    between atoms: _146  and  _147
REMARK   64  A    between atoms: _149  and  _151
REMARK   65  A    between atoms: _151  and  _152
REMARK   66  A    between atoms: _151  and  _154
REMARK   67  A    between atoms: _154  and  _155
REMARK   68  A    between atoms: _158  and  _160
REMARK   69  A    between atoms: _160  and  _161
REMARK   70  A    between atoms: _164  and  _165
REMARK   71  A    between atoms: _170  and  _172
REMARK   72  A    between atoms: _172  and  _173
REMARK   73  A    between atoms: _172  and  _175
REMARK   74  A    between atoms: _175  and  _176
REMARK   75  A    between atoms: _176  and  _177
REMARK   76  A    between atoms: _182  and  _184
REMARK   77  A    between atoms: _184  and  _185
REMARK   78  A    between atoms: _187  and  _189
REMARK   79  A    between atoms: _189  and  _190
REMARK   80  A    between atoms: _193  and  _195
REMARK   81  A    between atoms: _195  and  _196
REMARK   82  A    between atoms: _195  and  _198
REMARK   83  A    between atoms: _198  and  _199
REMARK   84  A    between atoms: _202  and  _204
REMARK   85  A    between atoms: _204  and  _205
REMARK   86  A    between atoms: _204  and  _207
REMARK   87  A    between atoms: _210  and  _212
REMARK   88  A    between atoms: _212  and  _213
REMARK   89  A    between atoms: _212  and  _215
REMARK   90  A    between atoms: _219  and  _220
REMARK   91  A    between atoms: _226  and  _227
REMARK   92  A    between atoms: _233  and  _234
REMARK   93  A    between atoms: _239  and  _241
REMARK   94  A    between atoms: _241  and  _242
REMARK   95  A    between atoms: _241  and  _244
REMARK   96  A    between atoms: _247  and  _249
REMARK   97  A    between atoms: _249  and  _250
REMARK   98  A    between atoms: _249  and  _252
REMARK   99  A    between atoms: _252  and  _253
REMARK  100  A    between atoms: _253  and  _254
REMARK  101  A    between atoms: _254  and  _255
REMARK  102  A    between atoms: _255  and  _256
REMARK  103  A    between atoms: _260  and  _262
REMARK  104  A    between atoms: _262  and  _263
REMARK  105  A    between atoms: _262  and  _265
REMARK  106  A    between atoms: _265  and  _266
REMARK  107  A    between atoms: _268  and  _270
REMARK  108  A    between atoms: _270  and  _271
REMARK  109  A    between atoms: _270  and  _273
REMARK  110  A    between atoms: _273  and  _274
REMARK  111  A    between atoms: _274  and  _275
REMARK  112  A    between atoms: _280  and  _282
REMARK  113  A    between atoms: _282  and  _283
REMARK  114  A    between atoms: _282  and  _285
REMARK  115  A    between atoms: _285  and  _286
REMARK  116  A    between atoms: _288  and  _290
REMARK  117  A    between atoms: _290  and  _291
REMARK  118  A    between atoms: _290  and  _293
REMARK  119  A    between atoms: _293  and  _294
REMARK  120  A    between atoms: _297  and  _299
REMARK  121  A    between atoms: _299  and  _300
REMARK  122  A    between atoms: _299  and  _302
REMARK  123  A    between atoms: _305  and  _307
REMARK  124  A    between atoms: _307  and  _308
REMARK  125  A    between atoms: _310  and  _312
REMARK  126  A    between atoms: _312  and  _313
REMARK  127  A    between atoms: _316  and  _318
REMARK  128  A    between atoms: _318  and  _319
REMARK  129  A    between atoms: _321  and  _323
REMARK  130  A    between atoms: _323  and  _324
REMARK  131  A    between atoms: _323  and  _326
REMARK  132  A    between atoms: _326  and  _327
REMARK  133  A    between atoms: _330  and  _332
REMARK  134  A    between atoms: _332  and  _333
REMARK  135  A    between atoms: _332  and  _335
REMARK  136  A    between atoms: _335  and  _336
REMARK  137  A    between atoms: _338  and  _340
REMARK  138  A    between atoms: _340  and  _341
REMARK  139  A    between atoms: _340  and  _343
REMARK  140  A    between atoms: _343  and  _344
REMARK  141  A    between atoms: _344  and  _345
REMARK  142  A    between atoms: _347  and  _349
REMARK  143  A    between atoms: _349  and  _350
REMARK  144  A    between atoms: _349  and  _352
REMARK  145  A    between atoms: _355  and  _357
REMARK  146  A    between atoms: _357  and  _358
REMARK  147  A    between atoms: _357  and  _360
REMARK  148  A    between atoms: _360  and  _361
REMARK  149  A    between atoms: _361  and  _362
REMARK  150  A    between atoms: _364  and  _366
REMARK  151  A    between atoms: _366  and  _367
REMARK  152  A    between atoms: _366  and  _369
REMARK  153  A    between atoms: _372  and  _374
REMARK  154  A    between atoms: _374  and  _375
REMARK  155  A    between atoms: _374  and  _377
REMARK  156  A    between atoms: _377  and  _378
REMARK  157  A    between atoms: _378  and  _379
REMARK  158  A    between atoms: _379  and  _380
REMARK  159  A    between atoms: _389  and  _391
REMARK  160  A    between atoms: _391  and  _392
REMARK  161  A    between atoms: _391  and  _394
REMARK  162  A    between atoms: _394  and  _395
REMARK  163  A    between atoms: _401  and  _403
REMARK  164  A    between atoms: _403  and  _404
REMARK  165  A    between atoms: _406  and  _408
REMARK  166  A    between atoms: _408  and  _409
REMARK  167  A    between atoms: _408  and  _411
REMARK  168  A    between atoms: _414  and  _416
REMARK  169  A    between atoms: _416  and  _417
REMARK  170  A    between atoms: _420  and  _422
REMARK  171  A    between atoms: _422  and  _423
REMARK  172  A    between atoms: _426  and  _428
REMARK  173  A    between atoms: _428  and  _429
REMARK  174  A    between atoms: _431  and  _433
REMARK  175  A    between atoms: _433  and  _434
REMARK  176  A    between atoms: _433  and  _436
REMARK  177  A    between atoms: _436  and  _437
REMARK  178  A    between atoms: _439  and  _441
REMARK  179  A    between atoms: _441  and  _442
REMARK  180  A    between atoms: _445  and  _447
REMARK  181  A    between atoms: _447  and  _448
REMARK  182  A    between atoms: _451  and  _453
REMARK  183  A    between atoms: _453  and  _454
REMARK  184  A    between atoms: _453  and  _456
REMARK  185  A    between atoms: _456  and  _457
REMARK  186  A    between atoms: _460  and  _462
REMARK  187  A    between atoms: _462  and  _463
REMARK  188  A    between atoms: _462  and  _465
REMARK  189  A    between atoms: _465  and  _466
REMARK  190  A    between atoms: _469  and  _471
REMARK  191  A    between atoms: _471  and  _472
REMARK  192  A    between atoms: _471  and  _474
REMARK  193  A    between atoms: _474  and  _475
REMARK  194  A    between atoms: _478  and  _480
REMARK  195  A    between atoms: _480  and  _481
REMARK  196  A    between atoms: _480  and  _483
REMARK  197  A    between atoms: _483  and  _484
REMARK  198  A    between atoms: _487  and  _489
REMARK  199  A    between atoms: _489  and  _490
REMARK  200  A    between atoms: _489  and  _492
REMARK  201  A    between atoms: _492  and  _493
REMARK  202  A    between atoms: _496  and  _498
REMARK  203  A    between atoms: _498  and  _499
REMARK  204  A    between atoms: _498  and  _501
REMARK  205  A    between atoms: _501  and  _502
REMARK  206  A    between atoms: _502  and  _503
REMARK  207  A    between atoms: _506  and  _508
REMARK  208  A    between atoms: _508  and  _509
REMARK  209  A    between atoms: _511  and  _513
REMARK  210  A    between atoms: _513  and  _514
REMARK  211  A    between atoms: _513  and  _516
REMARK  212  A    between atoms: _516  and  _517
REMARK  213  A    between atoms: _517  and  _518
REMARK  214  A    between atoms: _518  and  _519
REMARK  215  A    between atoms: _519  and  _520
REMARK  216  A    between atoms: _524  and  _526
REMARK  217  A    between atoms: _526  and  _527
REMARK  218  A    between atoms: _526  and  _529
REMARK  219  A    between atoms: _529  and  _530
REMARK  220  A    between atoms: _530  and  _531
REMARK  221  A    between atoms: _537  and  _538
REMARK  222  A    between atoms: _543  and  _545
REMARK  223  A    between atoms: _545  and  _546
REMARK  224  A    between atoms: _545  and  _548
REMARK  225  A    between atoms: _548  and  _549
REMARK  226  A    between atoms: _549  and  _550
REMARK                            x       y       z     vdW  Elec       q    Type
REMARK                         _______ _______ _______ _____ _____    ______ ____
ROOT
ATOM      1  CA  LEU A   1      -1.202 -34.422  13.977  0.00  0.00    +0.133 C 
ENDROOT
BRANCH   1   2
ATOM      2  N   LEU A   1      -2.583 -33.948  13.974  0.00  0.00    -0.239 NA
ATOM      3  H   LEU A   1      -2.827 -33.085  14.501  0.00  0.00    +0.142 HD
ENDBRANCH   1   2
BRANCH   1   4
ATOM      4  C   LEU A   1      -1.052 -35.782  14.659  0.00  0.00    +0.224 C 
ATOM      5  O   LEU A   1      -0.108 -36.527  14.375  0.00  0.00    -0.287 OA
ENDBRANCH   1   4
BRANCH   1   6
ATOM      6  CB  LEU A   1      -0.290 -33.405  14.663  0.00  0.00    +0.025 C 
BRANCH   6   7
ATOM      7  CG  LEU A   1      -0.212 -32.014  14.041  0.00  0.00    +0.002 C 
ATOM      8  CD2 LEU A   1       0.553 -31.079  14.962  0.00  0.00    +0.000 C 
ATOM      9  CD1 LEU A   1       0.432 -32.074  12.664  0.00  0.00    +0.000 C 
ENDBRANCH   6   7
ENDBRANCH   1   6
TORSDOF 4
REMARK  Name = ../refined-set-2016/3umo/3umo_pocket.pdb
REMARK  226 active torsions:
REMARK  status: ('A' for Active; 'I' for Inactive)
REMARK    1  A    between atoms: _1  and  _3
REMARK    2  A    between atoms: _3  and  _4
REMARK    3  A    between atoms: _6  and  _8
REMARK    4  A    between atoms: _8  and  _9
REMARK    5  A    between atoms: _8  and  _11
REMARK    6  A    between atoms: _11  and  _12
REMARK    7  A    between atoms: _17  and  _19
REMARK    8  A    between atoms: _19  and  _20
REMARK    9  A    between atoms: _19  and  _22
REMARK   10  A    between atoms: _22  and  _23
REMARK   11  A    between atoms: _23  and  _24
REMARK   12  A    between atoms: _24  and  _25
REMARK   13  A    between atoms: _34  and  _36
REMARK   14  A    between atoms: _36  and  _37
REMARK   15  A    between atoms: _36  and  _39
REMARK   16  A    between atoms: _39  and  _40
REMARK   17  A    between atoms: _42  and  _44
REMARK   18  A    between atoms: _44  and  _45
REMARK   19  A    between atoms: _44  and  _47
REMARK   20  A    between atoms: _47  and  _48
REMARK   21  A    between atoms: _51  and  _53
REMARK   22  A    between atoms: _53  and  _54
REMARK   23  A    between atoms: _53  and  _56
REMARK   24  A    between atoms: _56  and  _57
REMARK   25  A    between atoms: _59  and  _61
REMARK   26  A    between atoms: _61  and  _62
REMARK   27  A    between atoms: _61  and  _64
REMARK   28  A    between atoms: _64  and  _65
REMARK   29  A    between atoms: _65  and  _66
REMARK   30  A    between atoms: _66  and  _67
REMARK   31  A    between atoms: _67  and  _68
REMARK   32  A    between atoms: _73  and  _74
REMARK   33  A    between atoms: _79  and  _81
REMARK   34  A    between atoms: _81  and  _82
REMARK   35  A    between atoms: _81  and  _84
REMARK   36  A    between atoms: _84  and  _85
REMARK   37  A    between atoms: _90  and  _92
REMARK   38  A    between atoms: _92  and  _93
REMARK   39  A    between atoms: _92  and  _95
REMARK   40  A    between atoms: _95  and  _96
REMARK   41  A    between atoms: _96  and  _97
REMARK   42  A    between atoms: _102  and  _104
REMARK   43  A    between atoms: _104  and  _105
REMARK   44  A    between atoms: _104  and  _107
REMARK   45  A    between atoms: _107  and  _108
REMARK   46  A    between atoms: _108  and  _109
REMARK   47  A    between atoms: _109  and  _110
REMARK   48  A    between atoms: _110  and  _111
REMARK   49  A    between atoms: _115  and  _117
REMARK   50  A    between atoms: _117  and  _118
REMARK   51  A    between atoms: _117  and  _120
REMARK   52  A    between atoms: _120  and  _121
REMARK   53  A    between atoms: _121  and  _122
REMARK   54  A    between atoms: _125  and  _127
REMARK   55  A    between atoms: _127  and  _128
REMARK   56  A    between atoms: _127  and  _130
REMARK   57  A    between atoms: _133  and  _135
REMARK   58  A    between atoms: _135  and  _136
REMARK   59  A    between atoms: _135  and  _138
REMARK   60  A    between atoms: _141  and  _143
REMARK   61  A    between atoms: _143  and  _144
REMARK   62  A    between atoms: _143  and  _146
REMARK   63  A    between atoms: _146  and  _147
REMARK   64  A    between atoms: _149  and  _151
REMARK   65  A    between atoms: _151  and  _152
REMARK   66  A    between atoms: _151  and  _154
REMARK   67  A    between atoms: _154  and  _155
REMARK   68  A    between atoms: _158  and  _160
REMARK   69  A    between atoms: _160  and  _161
REMARK   70  A    between atoms: _164  and  _165
REMARK   71  A    between atoms: _170  and  _172
REMARK   72  A    between atoms: _172  and  _173
REMARK   73  A    between atoms: _172  and  _175
REMARK   74  A    between atoms: _175  and  _176
REMARK   75  A    between atoms: _176  and  _177
REMARK   76  A    between atoms: _182  and  _184
REMARK   77  A    between atoms: _184  and  _185
REMARK   78  A    between atoms: _187  and  _189
REMARK   79  A    between atoms: _189  and  _190
REMARK   80  A    between atoms: _193  and  _195
REMARK   81  A    between atoms: _195  and  _196
REMARK   82  A    between atoms: _195  and  _198
REMARK   83  A    between atoms: _198  and  _199
REMARK   84  A    between atoms: _202  and  _204
REMARK   85  A    between atoms: _204  and  _205
REMARK   86  A    between atoms: _204  and  _207
REMARK   87  A    between atoms: _210  and  _212
REMARK   88  A    between atoms: _212  and  _213
REMARK   89  A    between atoms: _212  and  _215
REMARK   90  A    between atoms: _219  and  _220
REMARK   91  A    between atoms: _226  and  _227
REMARK   92  A    between atoms: _233  and  _234
REMARK   93  A    between atoms: _239  and  _241
REMARK   94  A    between atoms: _241  and  _242
REMARK   95  A    between atoms: _241  and  _244
REMARK   96  A    between atoms: _247  and  _249
REMARK   97  A    between atoms: _249  and  _250
REMARK   98  A    between atoms: _249  and  _252
REMARK   99  A    between atoms: _252  and  _253
REMARK  100  A    between atoms: _253  and  _254
REMARK  101  A    between atoms: _254  and  _255
REMARK  102  A    between atoms: _255  and  _256
REMARK  103  A    between atoms: _260  and  _262
REMARK  104  A    between atoms: _262  and  _263
REMARK  105  A    between atoms: _262  and  _265
REMARK  106  A    between atoms: _265  and  _266
REMARK  107  A    between atoms: _268  and  _270
REMARK  108  A    between atoms: _270  and  _271
REMARK  109  A    between atoms: _270  and  _273
REMARK  110  A    between atoms: _273  and  _274
REMARK  111  A    between atoms: _274  and  _275
REMARK  112  A    between atoms: _280  and  _282
REMARK  113  A    between atoms: _282  and  _283
REMARK  114  A    between atoms: _282  and  _285
REMARK  115  A    between atoms: _285  and  _286
REMARK  116  A    between atoms: _288  and  _290
REMARK  117  A    between atoms: _290  and  _291
REMARK  118  A    between atoms: _290  and  _293
REMARK  119  A    between atoms: _293  and  _294
REMARK  120  A    between atoms: _297  and  _299
REMARK  121  A    between atoms: _299  and  _300
REMARK  122  A    between atoms: _299  and  _302
REMARK  123  A    between atoms: _305  and  _307
REMARK  124  A    between atoms: _307  and  _308
REMARK  125  A    between atoms: _310  and  _312
REMARK  126  A    between atoms: _312  and  _313
REMARK  127  A    between atoms: _316  and  _318
REMARK  128  A    between atoms: _318  and  _319
REMARK  129  A    between atoms: _321  and  _323
REMARK  130  A    between atoms: _323  and  _324
REMARK  131  A    between atoms: _323  and  _326
REMARK  132  A    between atoms: _326  and  _327
REMARK  133  A    between atoms: _330  and  _332
REMARK  134  A    between atoms: _332  and  _333
REMARK  135  A    between atoms: _332  and  _335
REMARK  136  A    between atoms: _335  and  _336
REMARK  137  A    between atoms: _338  and  _340
REMARK  138  A    between atoms: _340  and  _341
REMARK  139  A    between atoms: _340  and  _343
REMARK  140  A    between atoms: _343  and  _344
REMARK  141  A    between atoms: _344  and  _345
REMARK  142  A    between atoms: _347  and  _349
REMARK  143  A    between atoms: _349  and  _350
REMARK  144  A    between atoms: _349  and  _352
REMARK  145  A    between atoms: _355  and  _357
REMARK  146  A    between atoms: _357  and  _358
REMARK  147  A    between atoms: _357  and  _360
REMARK  148  A    between atoms: _360  and  _361
REMARK  149  A    between atoms: _361  and  _362
REMARK  150  A    between atoms: _364  and  _366
REMARK  151  A    between atoms: _366  and  _367
REMARK  152  A    between atoms: _366  and  _369
REMARK  153  A    between atoms: _372  and  _374
REMARK  154  A    between atoms: _374  and  _375
REMARK  155  A    between atoms: _374  and  _377
REMARK  156  A    between atoms: _377  and  _378
REMARK  157  A    between atoms: _378  and  _379
REMARK  158  A    between atoms: _379  and  _380
REMARK  159  A    between atoms: _389  and  _391
REMARK  160  A    between atoms: _391  and  _392
REMARK  161  A    between atoms: _391  and  _394
REMARK  162  A    between atoms: _394  and  _395
REMARK  163  A    between atoms: _401  and  _403
REMARK  164  A    between atoms: _403  and  _404
REMARK  165  A    between atoms: _406  and  _408
REMARK  166  A    between atoms: _408  and  _409
REMARK  167  A    between atoms: _408  and  _411
REMARK  168  A    between atoms: _414  and  _416
REMARK  169  A    between atoms: _416  and  _417
REMARK  170  A    between atoms: _420  and  _422
REMARK  171  A    between atoms: _422  and  _423
REMARK  172  A    between atoms: _426  and  _428
REMARK  173  A    between atoms: _428  and  _429
REMARK  174  A    between atoms: _431  and  _433
REMARK  175  A    between atoms: _433  and  _434
REMARK  176  A    between atoms: _433  and  _436
REMARK  177  A    between atoms: _436  and  _437
REMARK  178  A    between atoms: _439  and  _441
REMARK  179  A    between atoms: _441  and  _442
REMARK  180  A    between atoms: _445  and  _447
REMARK  181  A    between atoms: _447  and  _448
REMARK  182  A    between atoms: _451  and  _453
REMARK  183  A    between atoms: _453  and  _454
REMARK  184  A    between atoms: _453  and  _456
REMARK  185  A    between atoms: _456  and  _457
REMARK  186  A    between atoms: _460  and  _462
REMARK  187  A    between atoms: _462  and  _463
REMARK  188  A    between atoms: _462  and  _465
REMARK  189  A    between atoms: _465  and  _466
REMARK  190  A    between atoms: _469  and  _471
REMARK  191  A    between atoms: _471  and  _472
REMARK  192  A    between atoms: _471  and  _474
REMARK  193  A    between atoms: _474  and  _475
REMARK  194  A    between atoms: _478  and  _480
REMARK  195  A    between atoms: _480  and  _481
REMARK  196  A    between atoms: _480  and  _483
REMARK  197  A    between atoms: _483  and  _484
REMARK  198  A    between atoms: _487  and  _489
REMARK  199  A    between atoms: _489  and  _490
REMARK  200  A    between atoms: _489  and  _492
REMARK  201  A    between atoms: _492  and  _493
REMARK  202  A    between atoms: _496  and  _498
REMARK  203  A    between atoms: _498  and  _499
REMARK  204  A    between atoms: _498  and  _501
REMARK  205  A    between atoms: _501  and  _502
REMARK  206  A    between atoms: _502  and  _503
REMARK  207  A    between atoms: _506  and  _508
REMARK  208  A    between atoms: _508  and  _509
REMARK  209  A    between atoms: _511  and  _513
REMARK  210  A    between atoms: _513  and  _514
REMARK  211  A    between atoms: _513  and  _516
REMARK  212  A    between atoms: _516  and  _517
REMARK  213  A    between atoms: _517  and  _518
REMARK  214  A    between atoms: _518  and  _519
REMARK  215  A    between atoms: _519  and  _520
REMARK  216  A    between atoms: _524  and  _526
REMARK  217  A    between atoms: _526  and  _527
REMARK  218  A    between atoms: _526  and  _529
REMARK  219  A    between atoms: _529  and  _530
REMARK  220  A    between atoms: _530  and  _531
REMARK  221  A    between atoms: _537  and  _538
REMARK  222  A    between atoms: _543  and  _545
REMARK  223  A    between atoms: _545  and  _546
REMARK  224  A    between atoms: _545  and  _548
REMARK  225  A    between atoms: _548  and  _549
REMARK  226  A    between atoms: _549  and  _550
REMARK                            x       y       z     vdW  Elec       q    Type
REMARK                         _______ _______ _______ _____ _____    ______ ____
ROOT
ATOM      1  C   GLY A   2       8.447  -8.563  11.076  0.00  0.00    +0.243 C 
ATOM      2  N   LYS A   3       9.295  -8.974  12.017  0.00  0.00    -0.298 N 
ATOM      3  H   LYS A   3       9.610  -9.965  12.035  0.00  0.00    +0.150 HD
ATOM      4  O   GLY A   2       7.994  -7.415  11.044  0.00  0.00    -0.273 OA
ENDROOT
BRANCH   1   5
ATOM      5  CA  GLY A   2       8.047  -9.588  10.028  0.00  0.00    +0.176 C 
BRANCH   5   8
ATOM      6  C   GLU A   1       5.648  -9.390   9.721  0.00  0.00    +0.238 C 
ATOM      7  O   GLU A   1       5.425  -9.823  10.850  0.00  0.00    -0.274 OA
ATOM      8  N   GLY A   2       6.878  -9.216   9.250  0.00  0.00    -0.296 N 
ATOM      9  H   GLY A   2       7.007  -8.804   8.304  0.00  0.00    +0.150 HD
BRANCH   6  10
ATOM     10  CA  GLU A   1       4.491  -9.031   8.787  0.00  0.00    +0.145 C 
BRANCH  10  11
ATOM     11  N   GLU A   1       4.547  -7.686   8.201  0.00  0.00    -0.238 NA
ATOM     12  H   GLU A   1       3.921  -6.959   8.602  0.00  0.00    +0.142 HD
ENDBRANCH  10  11
BRANCH  10  13
ATOM     13  CB  GLU A   1       4.304 -10.105   7.707  0.00  0.00    +0.038 C 
BRANCH  13  14
ATOM     14  CG  GLU A   1       3.915 -11.484   8.252  0.00  0.00    +0.116 C 
BRANCH  14  15
ATOM     15  CD  GLU A   1       2.442 -11.584   8.637  0.00  0.00    +0.365 C 
ATOM     16  OE2 GLU A   1       2.029 -12.654   9.148  0.00  0.00    -0.246 OA
ATOM     17  OE1 GLU A   1       1.693 -10.604   8.424  0.00  0.00    -0.246 OA
ENDBRANCH  14  15
ENDBRANCH  13  14
ENDBRANCH  10  13
ENDBRANCH   6  10
ENDBRANCH   5   8
ENDBRANCH   1   5
BRANCH   2  18
ATOM     18  CA  LYS A   3       9.782  -8.038  13.022  0.00  0.00    +0.137 C 
BRANCH  18  19
ATOM     19  C   LYS A   3      10.810  -7.120  12.385  0.00  0.00    +0.227 C 
ATOM     20  O   LYS A   3      11.811  -7.586  11.836  0.00  0.00    -0.286 OA
ENDBRANCH  18  19
BRANCH  18  21
ATOM     21  CB  LYS A   3      10.439  -8.786  14.184  0.00  0.00    +0.028 C 
BRANCH  21  22
ATOM     22  CG  LYS A   3       9.591  -9.880  14.828  0.00  0.00    -0.000 C 
BRANCH  22  23
ATOM     23  CD  LYS A   3      10.470 -10.711  15.759  0.00  0.00    -0.024 C 
BRANCH  23  24
ATOM     24  CE  LYS A   3       9.846 -12.055  16.120  0.00  0.00    -0.086 C 
BRANCH  24  25
ATOM     25  NZ  LYS A   3      10.829 -12.929  16.856  0.00  0.00    +0.380 N 
ATOM     26  HZ1 LYS A   3      11.126 -12.453  17.732  0.00  0.00    -0.089 HD
ATOM     27  HZ2 LYS A   3      10.377 -13.836  17.089  0.00  0.00    -0.089 HD
ATOM     28  HZ3 LYS A   3      11.660 -13.098  16.253  0.00  0.00    -0.089 HD
ENDBRANCH  24  25
ENDBRANCH  23  24
ENDBRANCH  22  23
ENDBRANCH  21  22
ENDBRANCH  18  21
ENDBRANCH   2  18
TORSDOF 14
REMARK  Name = ../refined-set-2016/3umo/3umo_pocket.pdb
REMARK  226 active torsions:
REMARK  status: ('A' for Active; 'I' for Inactive)
REMARK    1  A    between atoms: _1  and  _3
REMARK    2  A    between atoms: _3  and  _4
REMARK    3  A    between atoms: _6  and  _8
REMARK    4  A    between atoms: _8  and  _9
REMARK    5  A    between atoms: _8  and  _11
REMARK    6  A    between atoms: _11  and  _12
REMARK    7  A    between atoms: _17  and  _19
REMARK    8  A    between atoms: _19  and  _20
REMARK    9  A    between atoms: _19  and  _22
REMARK   10  A    between atoms: _22  and  _23
REMARK   11  A    between atoms: _23  and  _24
REMARK   12  A    between atoms: _24  and  _25
REMARK   13  A    between atoms: _34  and  _36
REMARK   14  A    between atoms: _36  and  _37
REMARK   15  A    between atoms: _36  and  _39
REMARK   16  A    between atoms: _39  and  _40
REMARK   17  A    between atoms: _42  and  _44
REMARK   18  A    between atoms: _44  and  _45
REMARK   19  A    between atoms: _44  and  _47
REMARK   20  A    between atoms: _47  and  _48
REMARK   21  A    between atoms: _51  and  _53
REMARK   22  A    between atoms: _53  and  _54
REMARK   23  A    between atoms: _53  and  _56
REMARK   24  A    between atoms: _56  and  _57
REMARK   25  A    between atoms: _59  and  _61
REMARK   26  A    between atoms: _61  and  _62
REMARK   27  A    between atoms: _61  and  _64
REMARK   28  A    between atoms: _64  and  _65
REMARK   29  A    between atoms: _65  and  _66
REMARK   30  A    between atoms: _66  and  _67
REMARK   31  A    between atoms: _67  and  _68
REMARK   32  A    between atoms: _73  and  _74
REMARK   33  A    between atoms: _79  and  _81
REMARK   34  A    between atoms: _81  and  _82
REMARK   35  A    between atoms: _81  and  _84
REMARK   36  A    between atoms: _84  and  _85
REMARK   37  A    between atoms: _90  and  _92
REMARK   38  A    between atoms: _92  and  _93
REMARK   39  A    between atoms: _92  and  _95
REMARK   40  A    between atoms: _95  and  _96
REMARK   41  A    between atoms: _96  and  _97
REMARK   42  A    between atoms: _102  and  _104
REMARK   43  A    between atoms: _104  and  _105
REMARK   44  A    between atoms: _104  and  _107
REMARK   45  A    between atoms: _107  and  _108
REMARK   46  A    between atoms: _108  and  _109
REMARK   47  A    between atoms: _109  and  _110
REMARK   48  A    between atoms: _110  and  _111
REMARK   49  A    between atoms: _115  and  _117
REMARK   50  A    between atoms: _117  and  _118
REMARK   51  A    between atoms: _117  and  _120
REMARK   52  A    between atoms: _120  and  _121
REMARK   53  A    between atoms: _121  and  _122
REMARK   54  A    between atoms: _125  and  _127
REMARK   55  A    between atoms: _127  and  _128
REMARK   56  A    between atoms: _127  and  _130
REMARK   57  A    between atoms: _133  and  _135
REMARK   58  A    between atoms: _135  and  _136
REMARK   59  A    between atoms: _135  and  _138
REMARK   60  A    between atoms: _141  and  _143
REMARK   61  A    between atoms: _143  and  _144
REMARK   62  A    between atoms: _143  and  _146
REMARK   63  A    between atoms: _146  and  _147
REMARK   64  A    between atoms: _149  and  _151
REMARK   65  A    between atoms: _151  and  _152
REMARK   66  A    between atoms: _151  and  _154
REMARK   67  A    between atoms: _154  and  _155
REMARK   68  A    between atoms: _158  and  _160
REMARK   69  A    between atoms: _160  and  _161
REMARK   70  A    between atoms: _164  and  _165
REMARK   71  A    between atoms: _170  and  _172
REMARK   72  A    between atoms: _172  and  _173
REMARK   73  A    between atoms: _172  and  _175
REMARK   74  A    between atoms: _175  and  _176
REMARK   75  A    between atoms: _176  and  _177
REMARK   76  A    between atoms: _182  and  _184
REMARK   77  A    between atoms: _184  and  _185
REMARK   78  A    between atoms: _187  and  _189
REMARK   79  A    between atoms: _189  and  _190
REMARK   80  A    between atoms: _193  and  _195
REMARK   81  A    between atoms: _195  and  _196
REMARK   82  A    between atoms: _195  and  _198
REMARK   83  A    between atoms: _198  and  _199
REMARK   84  A    between atoms: _202  and  _204
REMARK   85  A    between atoms: _204  and  _205
REMARK   86  A    between atoms: _204  and  _207
REMARK   87  A    between atoms: _210  and  _212
REMARK   88  A    between atoms: _212  and  _213
REMARK   89  A    between atoms: _212  and  _215
REMARK   90  A    between atoms: _219  and  _220
REMARK   91  A    between atoms: _226  and  _227
REMARK   92  A    between atoms: _233  and  _234
REMARK   93  A    between atoms: _239  and  _241
REMARK   94  A    between atoms: _241  and  _242
REMARK   95  A    between atoms: _241  and  _244
REMARK   96  A    between atoms: _247  and  _249
REMARK   97  A    between atoms: _249  and  _250
REMARK   98  A    between atoms: _249  and  _252
REMARK   99  A    between atoms: _252  and  _253
REMARK  100  A    between atoms: _253  and  _254
REMARK  101  A    between atoms: _254  and  _255
REMARK  102  A    between atoms: _255  and  _256
REMARK  103  A    between atoms: _260  and  _262
REMARK  104  A    between atoms: _262  and  _263
REMARK  105  A    between atoms: _262  and  _265
REMARK  106  A    between atoms: _265  and  _266
REMARK  107  A    between atoms: _268  and  _270
REMARK  108  A    between atoms: _270  and  _271
REMARK  109  A    between atoms: _270  and  _273
REMARK  110  A    between atoms: _273  and  _274
REMARK  111  A    between atoms: _274  and  _275
REMARK  112  A    between atoms: _280  and  _282
REMARK  113  A    between atoms: _282  and  _283
REMARK  114  A    between atoms: _282  and  _285
REMARK  115  A    between atoms: _285  and  _286
REMARK  116  A    between atoms: _288  and  _290
REMARK  117  A    between atoms: _290  and  _291
REMARK  118  A    between atoms: _290  and  _293
REMARK  119  A    between atoms: _293  and  _294
REMARK  120  A    between atoms: _297  and  _299
REMARK  121  A    between atoms: _299  and  _300
REMARK  122  A    between atoms: _299  and  _302
REMARK  123  A    between atoms: _305  and  _307
REMARK  124  A    between atoms: _307  and  _308
REMARK  125  A    between atoms: _310  and  _312
REMARK  126  A    between atoms: _312  and  _313
REMARK  127  A    between atoms: _316  and  _318
REMARK  128  A    between atoms: _318  and  _319
REMARK  129  A    between atoms: _321  and  _323
REMARK  130  A    between atoms: _323  and  _324
REMARK  131  A    between atoms: _323  and  _326
REMARK  132  A    between atoms: _326  and  _327
REMARK  133  A    between atoms: _330  and  _332
REMARK  134  A    between atoms: _332  and  _333
REMARK  135  A    between atoms: _332  and  _335
REMARK  136  A    between atoms: _335  and  _336
REMARK  137  A    between atoms: _338  and  _340
REMARK  138  A    between atoms: _340  and  _341
REMARK  139  A    between atoms: _340  and  _343
REMARK  140  A    between atoms: _343  and  _344
REMARK  141  A    between atoms: _344  and  _345
REMARK  142  A    between atoms: _347  and  _349
REMARK  143  A    between atoms: _349  and  _350
REMARK  144  A    between atoms: _349  and  _352
REMARK  145  A    between atoms: _355  and  _357
REMARK  146  A    between atoms: _357  and  _358
REMARK  147  A    between atoms: _357  and  _360
REMARK  148  A    between atoms: _360  and  _361
REMARK  149  A    between atoms: _361  and  _362
REMARK  150  A    between atoms: _364  and  _366
REMARK  151  A    between atoms: _366  and  _367
REMARK  152  A    between atoms: _366  and  _369
REMARK  153  A    between atoms: _372  and  _374
REMARK  154  A    between atoms: _374  and  _375
REMARK  155  A    between atoms: _374  and  _377
REMARK  156  A    between atoms: _377  and  _378
REMARK  157  A    between atoms: _378  and  _379
REMARK  158  A    between atoms: _379  and  _380
REMARK  159  A    between atoms: _389  and  _391
REMARK  160  A    between atoms: _391  and  _392
REMARK  161  A    between atoms: _391  and  _394
REMARK  162  A    between atoms: _394  and  _395
REMARK  163  A    between atoms: _401  and  _403
REMARK  164  A    between atoms: _403  and  _404
REMARK  165  A    between atoms: _406  and  _408
REMARK  166  A    between atoms: _408  and  _409
REMARK  167  A    between atoms: _408  and  _411
REMARK  168  A    between atoms: _414  and  _416
REMARK  169  A    between atoms: _416  and  _417
REMARK  170  A    between atoms: _420  and  _422
REMARK  171  A    between atoms: _422  and  _423
REMARK  172  A    between atoms: _426  and  _428
REMARK  173  A    between atoms: _428  and  _429
REMARK  174  A    between atoms: _431  and  _433
REMARK  175  A    between atoms: _433  and  _434
REMARK  176  A    between atoms: _433  and  _436
REMARK  177  A    between atoms: _436  and  _437
REMARK  178  A    between atoms: _439  and  _441
REMARK  179  A    between atoms: _441  and  _442
REMARK  180  A    between atoms: _445  and  _447
REMARK  181  A    between atoms: _447  and  _448
REMARK  182  A    between atoms: _451  and  _453
REMARK  183  A    between atoms: _453  and  _454
REMARK  184  A    between atoms: _453  and  _456
REMARK  185  A    between atoms: _456  and  _457
REMARK  186  A    between atoms: _460  and  _462
REMARK  187  A    between atoms: _462  and  _463
REMARK  188  A    between atoms: _462  and  _465
REMARK  189  A    between atoms: _465  and  _466
REMARK  190  A    between atoms: _469  and  _471
REMARK  191  A    between atoms: _471  and  _472
REMARK  192  A    between atoms: _471  and  _474
REMARK  193  A    between atoms: _474  and  _475
REMARK  194  A    between atoms: _478  and  _480
REMARK  195  A    between atoms: _480  and  _481
REMARK  196  A    between atoms: _480  and  _483
REMARK  197  A    between atoms: _483  and  _484
REMARK  198  A    between atoms: _487  and  _489
REMARK  199  A    between atoms: _489  and  _490
REMARK  200  A    between atoms: _489  and  _492
REMARK  201  A    between atoms: _492  and  _493
REMARK  202  A    between atoms: _496  and  _498
REMARK  203  A    between atoms: _498  and  _499
REMARK  204  A    between atoms: _498  and  _501
REMARK  205  A    between atoms: _501  and  _502
REMARK  206  A    between atoms: _502  and  _503
REMARK  207  A    between atoms: _506  and  _508
REMARK  208  A    between atoms: _508  and  _509
REMARK  209  A    between atoms: _511  and  _513
REMARK  210  A    between atoms: _513  and  _514
REMARK  211  A    between atoms: _513  and  _516
REMARK  212  A    between atoms: _516  and  _517
REMARK  213  A    between atoms: _517  and  _518
REMARK  214  A    between atoms: _518  and  _519
REMARK  215  A    between atoms: _519  and  _520
REMARK  216  A    between atoms: _524  and  _526
REMARK  217  A    between atoms: _526  and  _527
REMARK  218  A    between atoms: _526  and  _529
REMARK  219  A    between atoms: _529  and  _530
REMARK  220  A    between atoms: _530  and  _531
REMARK  221  A    between atoms: _537  and  _538
REMARK  222  A    between atoms: _543  and  _545
REMARK  223  A    between atoms: _545  and  _546
REMARK  224  A    between atoms: _545  and  _548
REMARK  225  A    between atoms: _548  and  _549
REMARK  226  A    between atoms: _549  and  _550
REMARK                            x       y       z     vdW  Elec       q    Type
REMARK                         _______ _______ _______ _____ _____    ______ ____
ROOT
ATOM      1  CB  GLN A   1      -3.601 -23.857  -1.074  0.00  0.00    +0.035 C 
ENDROOT
BRANCH   1   2
ATOM      2  CA  GLN A   1      -4.113 -24.252  -2.458  0.00  0.00    +0.134 C 
BRANCH   2   3
ATOM      3  N   GLN A   1      -3.022 -24.275  -3.428  0.00  0.00    -0.239 NA
ATOM      4  H   GLN A   1      -2.082 -23.922  -3.156  0.00  0.00    +0.142 HD
ENDBRANCH   2   3
BRANCH   2   5
ATOM      5  C   GLN A   1      -5.255 -23.342  -2.873  0.00  0.00    +0.224 C 
ATOM      6  O   GLN A   1      -6.428 -23.722  -2.772  0.00  0.00    -0.287 OA
ENDBRANCH   2   5
ENDBRANCH   1   2
BRANCH   1   7
ATOM      7  CG  GLN A   1      -2.756 -24.927  -0.433  0.00  0.00    +0.087 C 
BRANCH   7   8
ATOM      8  CD  GLN A   1      -1.972 -24.399   0.740  0.00  0.00    +0.219 C 
ATOM      9  NE2 GLN A   1      -2.511 -24.589   1.944  0.00  0.00    -0.329 N 
ATOM     10 HE21 GLN A   1      -2.025 -24.236   2.793  0.00  0.00    +0.145 HD
ATOM     11 HE22 GLN A   1      -3.418 -25.090   2.035  0.00  0.00    +0.145 HD
ATOM     12  OE1 GLN A   1      -0.896 -23.810   0.570  0.00  0.00    -0.275 OA
ENDBRANCH   7   8
ENDBRANCH   1   7
TORSDOF 5
REMARK  Name = ../refined-set-2016/3umo/3umo_pocket.pdb
REMARK  226 active torsions:
REMARK  status: ('A' for Active; 'I' for Inactive)
REMARK    1  A    between atoms: _1  and  _3
REMARK    2  A    between atoms: _3  and  _4
REMARK    3  A    between atoms: _6  and  _8
REMARK    4  A    between atoms: _8  and  _9
REMARK    5  A    between atoms: _8  and  _11
REMARK    6  A    between atoms: _11  and  _12
REMARK    7  A    between atoms: _17  and  _19
REMARK    8  A    between atoms: _19  and  _20
REMARK    9  A    between atoms: _19  and  _22
REMARK   10  A    between atoms: _22  and  _23
REMARK   11  A    between atoms: _23  and  _24
REMARK   12  A    between atoms: _24  and  _25
REMARK   13  A    between atoms: _34  and  _36
REMARK   14  A    between atoms: _36  and  _37
REMARK   15  A    between atoms: _36  and  _39
REMARK   16  A    between atoms: _39  and  _40
REMARK   17  A    between atoms: _42  and  _44
REMARK   18  A    between atoms: _44  and  _45
REMARK   19  A    between atoms: _44  and  _47
REMARK   20  A    between atoms: _47  and  _48
REMARK   21  A    between atoms: _51  and  _53
REMARK   22  A    between atoms: _53  and  _54
REMARK   23  A    between atoms: _53  and  _56
REMARK   24  A    between atoms: _56  and  _57
REMARK   25  A    between atoms: _59  and  _61
REMARK   26  A    between atoms: _61  and  _62
REMARK   27  A    between atoms: _61  and  _64
REMARK   28  A    between atoms: _64  and  _65
REMARK   29  A    between atoms: _65  and  _66
REMARK   30  A    between atoms: _66  and  _67
REMARK   31  A    between atoms: _67  and  _68
REMARK   32  A    between atoms: _73  and  _74
REMARK   33  A    between atoms: _79  and  _81
REMARK   34  A    between atoms: _81  and  _82
REMARK   35  A    between atoms: _81  and  _84
REMARK   36  A    between atoms: _84  and  _85
REMARK   37  A    between atoms: _90  and  _92
REMARK   38  A    between atoms: _92  and  _93
REMARK   39  A    between atoms: _92  and  _95
REMARK   40  A    between atoms: _95  and  _96
REMARK   41  A    between atoms: _96  and  _97
REMARK   42  A    between atoms: _102  and  _104
REMARK   43  A    between atoms: _104  and  _105
REMARK   44  A    between atoms: _104  and  _107
REMARK   45  A    between atoms: _107  and  _108
REMARK   46  A    between atoms: _108  and  _109
REMARK   47  A    between atoms: _109  and  _110
REMARK   48  A    between atoms: _110  and  _111
REMARK   49  A    between atoms: _115  and  _117
REMARK   50  A    between atoms: _117  and  _118
REMARK   51  A    between atoms: _117  and  _120
REMARK   52  A    between atoms: _120  and  _121
REMARK   53  A    between atoms: _121  and  _122
REMARK   54  A    between atoms: _125  and  _127
REMARK   55  A    between atoms: _127  and  _128
REMARK   56  A    between atoms: _127  and  _130
REMARK   57  A    between atoms: _133  and  _135
REMARK   58  A    between atoms: _135  and  _136
REMARK   59  A    between atoms: _135  and  _138
REMARK   60  A    between atoms: _141  and  _143
REMARK   61  A    between atoms: _143  and  _144
REMARK   62  A    between atoms: _143  and  _146
REMARK   63  A    between atoms: _146  and  _147
REMARK   64  A    between atoms: _149  and  _151
REMARK   65  A    between atoms: _151  and  _152
REMARK   66  A    between atoms: _151  and  _154
REMARK   67  A    between atoms: _154  and  _155
REMARK   68  A    between atoms: _158  and  _160
REMARK   69  A    between atoms: _160  and  _161
REMARK   70  A    between atoms: _164  and  _165
REMARK   71  A    between atoms: _170  and  _172
REMARK   72  A    between atoms: _172  and  _173
REMARK   73  A    between atoms: _172  and  _175
REMARK   74  A    between atoms: _175  and  _176
REMARK   75  A    between atoms: _176  and  _177
REMARK   76  A    between atoms: _182  and  _184
REMARK   77  A    between atoms: _184  and  _185
REMARK   78  A    between atoms: _187  and  _189
REMARK   79  A    between atoms: _189  and  _190
REMARK   80  A    between atoms: _193  and  _195
REMARK   81  A    between atoms: _195  and  _196
REMARK   82  A    between atoms: _195  and  _198
REMARK   83  A    between atoms: _198  and  _199
REMARK   84  A    between atoms: _202  and  _204
REMARK   85  A    between atoms: _204  and  _205
REMARK   86  A    between atoms: _204  and  _207
REMARK   87  A    between atoms: _210  and  _212
REMARK   88  A    between atoms: _212  and  _213
REMARK   89  A    between atoms: _212  and  _215
REMARK   90  A    between atoms: _219  and  _220
REMARK   91  A    between atoms: _226  and  _227
REMARK   92  A    between atoms: _233  and  _234
REMARK   93  A    between atoms: _239  and  _241
REMARK   94  A    between atoms: _241  and  _242
REMARK   95  A    between atoms: _241  and  _244
REMARK   96  A    between atoms: _247  and  _249
REMARK   97  A    between atoms: _249  and  _250
REMARK   98  A    between atoms: _249  and  _252
REMARK   99  A    between atoms: _252  and  _253
REMARK  100  A    between atoms: _253  and  _254
REMARK  101  A    between atoms: _254  and  _255
REMARK  102  A    between atoms: _255  and  _256
REMARK  103  A    between atoms: _260  and  _262
REMARK  104  A    between atoms: _262  and  _263
REMARK  105  A    between atoms: _262  and  _265
REMARK  106  A    between atoms: _265  and  _266
REMARK  107  A    between atoms: _268  and  _270
REMARK  108  A    between atoms: _270  and  _271
REMARK  109  A    between atoms: _270  and  _273
REMARK  110  A    between atoms: _273  and  _274
REMARK  111  A    between atoms: _274  and  _275
REMARK  112  A    between atoms: _280  and  _282
REMARK  113  A    between atoms: _282  and  _283
REMARK  114  A    between atoms: _282  and  _285
REMARK  115  A    between atoms: _285  and  _286
REMARK  116  A    between atoms: _288  and  _290
REMARK  117  A    between atoms: _290  and  _291
REMARK  118  A    between atoms: _290  and  _293
REMARK  119  A    between atoms: _293  and  _294
REMARK  120  A    between atoms: _297  and  _299
REMARK  121  A    between atoms: _299  and  _300
REMARK  122  A    between atoms: _299  and  _302
REMARK  123  A    between atoms: _305  and  _307
REMARK  124  A    between atoms: _307  and  _308
REMARK  125  A    between atoms: _310  and  _312
REMARK  126  A    between atoms: _312  and  _313
REMARK  127  A    between atoms: _316  and  _318
REMARK  128  A    between atoms: _318  and  _319
REMARK  129  A    between atoms: _321  and  _323
REMARK  130  A    between atoms: _323  and  _324
REMARK  131  A    between atoms: _323  and  _326
REMARK  132  A    between atoms: _326  and  _327
REMARK  133  A    between atoms: _330  and  _332
REMARK  134  A    between atoms: _332  and  _333
REMARK  135  A    between atoms: _332  and  _335
REMARK  136  A    between atoms: _335  and  _336
REMARK  137  A    between atoms: _338  and  _340
REMARK  138  A    between atoms: _340  and  _341
REMARK  139  A    between atoms: _340  and  _343
REMARK  140  A    between atoms: _343  and  _344
REMARK  141  A    between atoms: _344  and  _345
REMARK  142  A    between atoms: _347  and  _349
REMARK  143  A    between atoms: _349  and  _350
REMARK  144  A    between atoms: _349  and  _352
REMARK  145  A    between atoms: _355  and  _357
REMARK  146  A    between atoms: _357  and  _358
REMARK  147  A    between atoms: _357  and  _360
REMARK  148  A    between atoms: _360  and  _361
REMARK  149  A    between atoms: _361  and  _362
REMARK  150  A    between atoms: _364  and  _366
REMARK  151  A    between atoms: _366  and  _367
REMARK  152  A    between atoms: _366  and  _369
REMARK  153  A    between atoms: _372  and  _374
REMARK  154  A    between atoms: _374  and  _375
REMARK  155  A    between atoms: _374  and  _377
REMARK  156  A    between atoms: _377  and  _378
REMARK  157  A    between atoms: _378  and  _379
REMARK  158  A    between atoms: _379  and  _380
REMARK  159  A    between atoms: _389  and  _391
REMARK  160  A    between atoms: _391  and  _392
REMARK  161  A    between atoms: _391  and  _394
REMARK  162  A    between atoms: _394  and  _395
REMARK  163  A    between atoms: _401  and  _403
REMARK  164  A    between atoms: _403  and  _404
REMARK  165  A    between atoms: _406  and  _408
REMARK  166  A    between atoms: _408  and  _409
REMARK  167  A    between atoms: _408  and  _411
REMARK  168  A    between atoms: _414  and  _416
REMARK  169  A    between atoms: _416  and  _417
REMARK  170  A    between atoms: _420  and  _422
REMARK  171  A    between atoms: _422  and  _423
REMARK  172  A    between atoms: _426  and  _428
REMARK  173  A    between atoms: _428  and  _429
REMARK  174  A    between atoms: _431  and  _433
REMARK  175  A    between atoms: _433  and  _434
REMARK  176  A    between atoms: _433  and  _436
REMARK  177  A    between atoms: _436  and  _437
REMARK  178  A    between atoms: _439  and  _441
REMARK  179  A    between atoms: _441  and  _442
REMARK  180  A    between atoms: _445  and  _447
REMARK  181  A    between atoms: _447  and  _448
REMARK  182  A    between atoms: _451  and  _453
REMARK  183  A    between atoms: _453  and  _454
REMARK  184  A    between atoms: _453  and  _456
REMARK  185  A    between atoms: _456  and  _457
REMARK  186  A    between atoms: _460  and  _462
REMARK  187  A    between atoms: _462  and  _463
REMARK  188  A    between atoms: _462  and  _465
REMARK  189  A    between atoms: _465  and  _466
REMARK  190  A    between atoms: _469  and  _471
REMARK  191  A    between atoms: _471  and  _472
REMARK  192  A    between atoms: _471  and  _474
REMARK  193  A    between atoms: _474  and  _475
REMARK  194  A    between atoms: _478  and  _480
REMARK  195  A    between atoms: _480  and  _481
REMARK  196  A    between atoms: _480  and  _483
REMARK  197  A    between atoms: _483  and  _484
REMARK  198  A    between atoms: _487  and  _489
REMARK  199  A    between atoms: _489  and  _490
REMARK  200  A    between atoms: _489  and  _492
REMARK  201  A    between atoms: _492  and  _493
REMARK  202  A    between atoms: _496  and  _498
REMARK  203  A    between atoms: _498  and  _499
REMARK  204  A    between atoms: _498  and  _501
REMARK  205  A    between atoms: _501  and  _502
REMARK  206  A    between atoms: _502  and  _503
REMARK  207  A    between atoms: _506  and  _508
REMARK  208  A    between atoms: _508  and  _509
REMARK  209  A    between atoms: _511  and  _513
REMARK  210  A    between atoms: _513  and  _514
REMARK  211  A    between atoms: _513  and  _516
REMARK  212  A    between atoms: _516  and  _517
REMARK  213  A    between atoms: _517  and  _518
REMARK  214  A    between atoms: _518  and  _519
REMARK  215  A    between atoms: _519  and  _520
REMARK  216  A    between atoms: _524  and  _526
REMARK  217  A    between atoms: _526  and  _527
REMARK  218  A    between atoms: _526  and  _529
REMARK  219  A    between atoms: _529  and  _530
REMARK  220  A    between atoms: _530  and  _531
REMARK  221  A    between atoms: _537  and  _538
REMARK  222  A    between atoms: _543  and  _545
REMARK  223  A    between atoms: _545  and  _546
REMARK  224  A    between atoms: _545  and  _548
REMARK  225  A    between atoms: _548  and  _549
REMARK  226  A    between atoms: _549  and  _550
REMARK                            x       y       z     vdW  Elec       q    Type
REMARK                         _______ _______ _______ _____ _____    ______ ____
ROOT
ATOM      1  CA  GLN A   2       4.969 -27.067   2.917  0.00  0.00    +0.137 C 
ENDROOT
BRANCH   1   4
ATOM      2  C   PRO A   1       6.631 -25.459   2.201  0.00  0.00    +0.239 C 
ATOM      3  O   PRO A   1       7.545 -26.144   2.662  0.00  0.00    -0.274 OA
ATOM      4  N   GLN A   2       5.351 -25.815   2.277  0.00  0.00    -0.298 N 
ATOM      5  H   GLN A   2       4.618 -25.195   1.877  0.00  0.00    +0.150 HD
BRANCH   2   7
ATOM      6  N   PRO A   1       5.835 -23.640   0.670  0.00  0.00    -0.210 NA
ATOM      7  CA  PRO A   1       6.950 -24.141   1.490  0.00  0.00    +0.149 C 
ATOM      8  CB  PRO A   1       7.178 -23.013   2.513  0.00  0.00    +0.028 C 
ATOM      9  CG  PRO A   1       5.866 -22.279   2.578  0.00  0.00    +0.021 C 
ATOM     10  CD  PRO A   1       5.296 -22.362   1.176  0.00  0.00    +0.089 C 
ENDBRANCH   2   7
ENDBRANCH   1   4
BRANCH   1  11
ATOM     11  C   GLN A   2       5.065 -28.259   1.976  0.00  0.00    +0.227 C 
ATOM     12  O   GLN A   2       4.784 -29.392   2.375  0.00  0.00    -0.286 OA
ENDBRANCH   1  11
BRANCH   1  13
ATOM     13  CB  GLN A   2       3.563 -26.955   3.512  0.00  0.00    +0.037 C 
BRANCH  13  14
ATOM     14  CG  GLN A   2       3.504 -25.966   4.662  0.00  0.00    +0.087 C 
BRANCH  14  15
ATOM     15  CD  GLN A   2       2.119 -25.825   5.245  0.00  0.00    +0.219 C 
ATOM     16  NE2 GLN A   2       2.047 -25.396   6.499  0.00  0.00    -0.329 N 
ATOM     17 HE21 GLN A   2       2.917 -25.173   7.023  0.00  0.00    +0.145 HD
ATOM     18 HE22 GLN A   2       1.120 -25.283   6.957  0.00  0.00    +0.145 HD
ATOM     19  OE1 GLN A   2       1.122 -26.103   4.578  0.00  0.00    -0.275 OA
ENDBRANCH  14  15
ENDBRANCH  13  14
ENDBRANCH   1  13
TORSDOF 6
REMARK  Name = ../refined-set-2016/3umo/3umo_pocket.pdb
REMARK  226 active torsions:
REMARK  status: ('A' for Active; 'I' for Inactive)
REMARK    1  A    between atoms: _1  and  _3
REMARK    2  A    between atoms: _3  and  _4
REMARK    3  A    between atoms: _6  and  _8
REMARK    4  A    between atoms: _8  and  _9
REMARK    5  A    between atoms: _8  and  _11
REMARK    6  A    between atoms: _11  and  _12
REMARK    7  A    between atoms: _17  and  _19
REMARK    8  A    between atoms: _19  and  _20
REMARK    9  A    between atoms: _19  and  _22
REMARK   10  A    between atoms: _22  and  _23
REMARK   11  A    between atoms: _23  and  _24
REMARK   12  A    between atoms: _24  and  _25
REMARK   13  A    between atoms: _34  and  _36
REMARK   14  A    between atoms: _36  and  _37
REMARK   15  A    between atoms: _36  and  _39
REMARK   16  A    between atoms: _39  and  _40
REMARK   17  A    between atoms: _42  and  _44
REMARK   18  A    between atoms: _44  and  _45
REMARK   19  A    between atoms: _44  and  _47
REMARK   20  A    between atoms: _47  and  _48
REMARK   21  A    between atoms: _51  and  _53
REMARK   22  A    between atoms: _53  and  _54
REMARK   23  A    between atoms: _53  and  _56
REMARK   24  A    between atoms: _56  and  _57
REMARK   25  A    between atoms: _59  and  _61
REMARK   26  A    between atoms: _61  and  _62
REMARK   27  A    between atoms: _61  and  _64
REMARK   28  A    between atoms: _64  and  _65
REMARK   29  A    between atoms: _65  and  _66
REMARK   30  A    between atoms: _66  and  _67
REMARK   31  A    between atoms: _67  and  _68
REMARK   32  A    between atoms: _73  and  _74
REMARK   33  A    between atoms: _79  and  _81
REMARK   34  A    between atoms: _81  and  _82
REMARK   35  A    between atoms: _81  and  _84
REMARK   36  A    between atoms: _84  and  _85
REMARK   37  A    between atoms: _90  and  _92
REMARK   38  A    between atoms: _92  and  _93
REMARK   39  A    between atoms: _92  and  _95
REMARK   40  A    between atoms: _95  and  _96
REMARK   41  A    between atoms: _96  and  _97
REMARK   42  A    between atoms: _102  and  _104
REMARK   43  A    between atoms: _104  and  _105
REMARK   44  A    between atoms: _104  and  _107
REMARK   45  A    between atoms: _107  and  _108
REMARK   46  A    between atoms: _108  and  _109
REMARK   47  A    between atoms: _109  and  _110
REMARK   48  A    between atoms: _110  and  _111
REMARK   49  A    between atoms: _115  and  _117
REMARK   50  A    between atoms: _117  and  _118
REMARK   51  A    between atoms: _117  and  _120
REMARK   52  A    between atoms: _120  and  _121
REMARK   53  A    between atoms: _121  and  _122
REMARK   54  A    between atoms: _125  and  _127
REMARK   55  A    between atoms: _127  and  _128
REMARK   56  A    between atoms: _127  and  _130
REMARK   57  A    between atoms: _133  and  _135
REMARK   58  A    between atoms: _135  and  _136
REMARK   59  A    between atoms: _135  and  _138
REMARK   60  A    between atoms: _141  and  _143
REMARK   61  A    between atoms: _143  and  _144
REMARK   62  A    between atoms: _143  and  _146
REMARK   63  A    between atoms: _146  and  _147
REMARK   64  A    between atoms: _149  and  _151
REMARK   65  A    between atoms: _151  and  _152
REMARK   66  A    between atoms: _151  and  _154
REMARK   67  A    between atoms: _154  and  _155
REMARK   68  A    between atoms: _158  and  _160
REMARK   69  A    between atoms: _160  and  _161
REMARK   70  A    between atoms: _164  and  _165
REMARK   71  A    between atoms: _170  and  _172
REMARK   72  A    between atoms: _172  and  _173
REMARK   73  A    between atoms: _172  and  _175
REMARK   74  A    between atoms: _175  and  _176
REMARK   75  A    between atoms: _176  and  _177
REMARK   76  A    between atoms: _182  and  _184
REMARK   77  A    between atoms: _184  and  _185
REMARK   78  A    between atoms: _187  and  _189
REMARK   79  A    between atoms: _189  and  _190
REMARK   80  A    between atoms: _193  and  _195
REMARK   81  A    between atoms: _195  and  _196
REMARK   82  A    between atoms: _195  and  _198
REMARK   83  A    between atoms: _198  and  _199
REMARK   84  A    between atoms: _202  and  _204
REMARK   85  A    between atoms: _204  and  _205
REMARK   86  A    between atoms: _204  and  _207
REMARK   87  A    between atoms: _210  and  _212
REMARK   88  A    between atoms: _212  and  _213
REMARK   89  A    between atoms: _212  and  _215
REMARK   90  A    between atoms: _219  and  _220
REMARK   91  A    between atoms: _226  and  _227
REMARK   92  A    between atoms: _233  and  _234
REMARK   93  A    between atoms: _239  and  _241
REMARK   94  A    between atoms: _241  and  _242
REMARK   95  A    between atoms: _241  and  _244
REMARK   96  A    between atoms: _247  and  _249
REMARK   97  A    between atoms: _249  and  _250
REMARK   98  A    between atoms: _249  and  _252
REMARK   99  A    between atoms: _252  and  _253
REMARK  100  A    between atoms: _253  and  _254
REMARK  101  A    between atoms: _254  and  _255
REMARK  102  A    between atoms: _255  and  _256
REMARK  103  A    between atoms: _260  and  _262
REMARK  104  A    between atoms: _262  and  _263
REMARK  105  A    between atoms: _262  and  _265
REMARK  106  A    between atoms: _265  and  _266
REMARK  107  A    between atoms: _268  and  _270
REMARK  108  A    between atoms: _270  and  _271
REMARK  109  A    between atoms: _270  and  _273
REMARK  110  A    between atoms: _273  and  _274
REMARK  111  A    between atoms: _274  and  _275
REMARK  112  A    between atoms: _280  and  _282
REMARK  113  A    between atoms: _282  and  _283
REMARK  114  A    between atoms: _282  and  _285
REMARK  115  A    between atoms: _285  and  _286
REMARK  116  A    between atoms: _288  and  _290
REMARK  117  A    between atoms: _290  and  _291
REMARK  118  A    between atoms: _290  and  _293
REMARK  119  A    between atoms: _293  and  _294
REMARK  120  A    between atoms: _297  and  _299
REMARK  121  A    between atoms: _299  and  _300
REMARK  122  A    between atoms: _299  and  _302
REMARK  123  A    between atoms: _305  and  _307
REMARK  124  A    between atoms: _307  and  _308
REMARK  125  A    between atoms: _310  and  _312
REMARK  126  A    between atoms: _312  and  _313
REMARK  127  A    between atoms: _316  and  _318
REMARK  128  A    between atoms: _318  and  _319
REMARK  129  A    between atoms: _321  and  _323
REMARK  130  A    between atoms: _323  and  _324
REMARK  131  A    between atoms: _323  and  _326
REMARK  132  A    between atoms: _326  and  _327
REMARK  133  A    between atoms: _330  and  _332
REMARK  134  A    between atoms: _332  and  _333
REMARK  135  A    between atoms: _332  and  _335
REMARK  136  A    between atoms: _335  and  _336
REMARK  137  A    between atoms: _338  and  _340
REMARK  138  A    between atoms: _340  and  _341
REMARK  139  A    between atoms: _340  and  _343
REMARK  140  A    between atoms: _343  and  _344
REMARK  141  A    between atoms: _344  and  _345
REMARK  142  A    between atoms: _347  and  _349
REMARK  143  A    between atoms: _349  and  _350
REMARK  144  A    between atoms: _349  and  _352
REMARK  145  A    between atoms: _355  and  _357
REMARK  146  A    between atoms: _357  and  _358
REMARK  147  A    between atoms: _357  and  _360
REMARK  148  A    between atoms: _360  and  _361
REMARK  149  A    between atoms: _361  and  _362
REMARK  150  A    between atoms: _364  and  _366
REMARK  151  A    between atoms: _366  and  _367
REMARK  152  A    between atoms: _366  and  _369
REMARK  153  A    between atoms: _372  and  _374
REMARK  154  A    between atoms: _374  and  _375
REMARK  155  A    between atoms: _374  and  _377
REMARK  156  A    between atoms: _377  and  _378
REMARK  157  A    between atoms: _378  and  _379
REMARK  158  A    between atoms: _379  and  _380
REMARK  159  A    between atoms: _389  and  _391
REMARK  160  A    between atoms: _391  and  _392
REMARK  161  A    between atoms: _391  and  _394
REMARK  162  A    between atoms: _394  and  _395
REMARK  163  A    between atoms: _401  and  _403
REMARK  164  A    between atoms: _403  and  _404
REMARK  165  A    between atoms: _406  and  _408
REMARK  166  A    between atoms: _408  and  _409
REMARK  167  A    between atoms: _408  and  _411
REMARK  168  A    between atoms: _414  and  _416
REMARK  169  A    between atoms: _416  and  _417
REMARK  170  A    between atoms: _420  and  _422
REMARK  171  A    between atoms: _422  and  _423
REMARK  172  A    between atoms: _426  and  _428
REMARK  173  A    between atoms: _428  and  _429
REMARK  174  A    between atoms: _431  and  _433
REMARK  175  A    between atoms: _433  and  _434
REMARK  176  A    between atoms: _433  and  _436
REMARK  177  A    between atoms: _436  and  _437
REMARK  178  A    between atoms: _439  and  _441
REMARK  179  A    between atoms: _441  and  _442
REMARK  180  A    between atoms: _445  and  _447
REMARK  181  A    between atoms: _447  and  _448
REMARK  182  A    between atoms: _451  and  _453
REMARK  183  A    between atoms: _453  and  _454
REMARK  184  A    between atoms: _453  and  _456
REMARK  185  A    between atoms: _456  and  _457
REMARK  186  A    between atoms: _460  and  _462
REMARK  187  A    between atoms: _462  and  _463
REMARK  188  A    between atoms: _462  and  _465
REMARK  189  A    between atoms: _465  and  _466
REMARK  190  A    between atoms: _469  and  _471
REMARK  191  A    between atoms: _471  and  _472
REMARK  192  A    between atoms: _471  and  _474
REMARK  193  A    between atoms: _474  and  _475
REMARK  194  A    between atoms: _478  and  _480
REMARK  195  A    between atoms: _480  and  _481
REMARK  196  A    between atoms: _480  and  _483
REMARK  197  A    between atoms: _483  and  _484
REMARK  198  A    between atoms: _487  and  _489
REMARK  199  A    between atoms: _489  and  _490
REMARK  200  A    between atoms: _489  and  _492
REMARK  201  A    between atoms: _492  and  _493
REMARK  202  A    between atoms: _496  and  _498
REMARK  203  A    between atoms: _498  and  _499
REMARK  204  A    between atoms: _498  and  _501
REMARK  205  A    between atoms: _501  and  _502
REMARK  206  A    between atoms: _502  and  _503
REMARK  207  A    between atoms: _506  and  _508
REMARK  208  A    between atoms: _508  and  _509
REMARK  209  A    between atoms: _511  and  _513
REMARK  210  A    between atoms: _513  and  _514
REMARK  211  A    between atoms: _513  and  _516
REMARK  212  A    between atoms: _516  and  _517
REMARK  213  A    between atoms: _517  and  _518
REMARK  214  A    between atoms: _518  and  _519
REMARK  215  A    between atoms: _519  and  _520
REMARK  216  A    between atoms: _524  and  _526
REMARK  217  A    between atoms: _526  and  _527
REMARK  218  A    between atoms: _526  and  _529
REMARK  219  A    between atoms: _529  and  _530
REMARK  220  A    between atoms: _530  and  _531
REMARK  221  A    between atoms: _537  and  _538
REMARK  222  A    between atoms: _543  and  _545
REMARK  223  A    between atoms: _545  and  _546
REMARK  224  A    between atoms: _545  and  _548
REMARK  225  A    between atoms: _548  and  _549
REMARK  226  A    between atoms: _549  and  _550
REMARK                            x       y       z     vdW  Elec       q    Type
REMARK                         _______ _______ _______ _____ _____    ______ ____
ROOT
ATOM      1 MG   UNL     1      11.105 -16.787  18.032  0.00  0.00    +0.000 Mg
ATOM      2  O   UNL     1      11.658 -15.208  19.415  0.00  0.00    +0.000 OA
ATOM      3  O   UNL     1      12.785 -18.083  18.678  0.00  0.00    +0.000 OA
ENDROOT
TORSDOF 0
REMARK  Name = ../refined-set-2016/3umo/3umo_pocket.pdb
REMARK  226 active torsions:
REMARK  status: ('A' for Active; 'I' for Inactive)
REMARK    1  A    between atoms: _1  and  _3
REMARK    2  A    between atoms: _3  and  _4
REMARK    3  A    between atoms: _6  and  _8
REMARK    4  A    between atoms: _8  and  _9
REMARK    5  A    between atoms: _8  and  _11
REMARK    6  A    between atoms: _11  and  _12
REMARK    7  A    between atoms: _17  and  _19
REMARK    8  A    between atoms: _19  and  _20
REMARK    9  A    between atoms: _19  and  _22
REMARK   10  A    between atoms: _22  and  _23
REMARK   11  A    between atoms: _23  and  _24
REMARK   12  A    between atoms: _24  and  _25
REMARK   13  A    between atoms: _34  and  _36
REMARK   14  A    between atoms: _36  and  _37
REMARK   15  A    between atoms: _36  and  _39
REMARK   16  A    between atoms: _39  and  _40
REMARK   17  A    between atoms: _42  and  _44
REMARK   18  A    between atoms: _44  and  _45
REMARK   19  A    between atoms: _44  and  _47
REMARK   20  A    between atoms: _47  and  _48
REMARK   21  A    between atoms: _51  and  _53
REMARK   22  A    between atoms: _53  and  _54
REMARK   23  A    between atoms: _53  and  _56
REMARK   24  A    between atoms: _56  and  _57
REMARK   25  A    between atoms: _59  and  _61
REMARK   26  A    between atoms: _61  and  _62
REMARK   27  A    between atoms: _61  and  _64
REMARK   28  A    between atoms: _64  and  _65
REMARK   29  A    between atoms: _65  and  _66
REMARK   30  A    between atoms: _66  and  _67
REMARK   31  A    between atoms: _67  and  _68
REMARK   32  A    between atoms: _73  and  _74
REMARK   33  A    between atoms: _79  and  _81
REMARK   34  A    between atoms: _81  and  _82
REMARK   35  A    between atoms: _81  and  _84
REMARK   36  A    between atoms: _84  and  _85
REMARK   37  A    between atoms: _90  and  _92
REMARK   38  A    between atoms: _92  and  _93
REMARK   39  A    between atoms: _92  and  _95
REMARK   40  A    between atoms: _95  and  _96
REMARK   41  A    between atoms: _96  and  _97
REMARK   42  A    between atoms: _102  and  _104
REMARK   43  A    between atoms: _104  and  _105
REMARK   44  A    between atoms: _104  and  _107
REMARK   45  A    between atoms: _107  and  _108
REMARK   46  A    between atoms: _108  and  _109
REMARK   47  A    between atoms: _109  and  _110
REMARK   48  A    between atoms: _110  and  _111
REMARK   49  A    between atoms: _115  and  _117
REMARK   50  A    between atoms: _117  and  _118
REMARK   51  A    between atoms: _117  and  _120
REMARK   52  A    between atoms: _120  and  _121
REMARK   53  A    between atoms: _121  and  _122
REMARK   54  A    between atoms: _125  and  _127
REMARK   55  A    between atoms: _127  and  _128
REMARK   56  A    between atoms: _127  and  _130
REMARK   57  A    between atoms: _133  and  _135
REMARK   58  A    between atoms: _135  and  _136
REMARK   59  A    between atoms: _135  and  _138
REMARK   60  A    between atoms: _141  and  _143
REMARK   61  A    between atoms: _143  and  _144
REMARK   62  A    between atoms: _143  and  _146
REMARK   63  A    between atoms: _146  and  _147
REMARK   64  A    between atoms: _149  and  _151
REMARK   65  A    between atoms: _151  and  _152
REMARK   66  A    between atoms: _151  and  _154
REMARK   67  A    between atoms: _154  and  _155
REMARK   68  A    between atoms: _158  and  _160
REMARK   69  A    between atoms: _160  and  _161
REMARK   70  A    between atoms: _164  and  _165
REMARK   71  A    between atoms: _170  and  _172
REMARK   72  A    between atoms: _172  and  _173
REMARK   73  A    between atoms: _172  and  _175
REMARK   74  A    between atoms: _175  and  _176
REMARK   75  A    between atoms: _176  and  _177
REMARK   76  A    between atoms: _182  and  _184
REMARK   77  A    between atoms: _184  and  _185
REMARK   78  A    between atoms: _187  and  _189
REMARK   79  A    between atoms: _189  and  _190
REMARK   80  A    between atoms: _193  and  _195
REMARK   81  A    between atoms: _195  and  _196
REMARK   82  A    between atoms: _195  and  _198
REMARK   83  A    between atoms: _198  and  _199
REMARK   84  A    between atoms: _202  and  _204
REMARK   85  A    between atoms: _204  and  _205
REMARK   86  A    between atoms: _204  and  _207
REMARK   87  A    between atoms: _210  and  _212
REMARK   88  A    between atoms: _212  and  _213
REMARK   89  A    between atoms: _212  and  _215
REMARK   90  A    between atoms: _219  and  _220
REMARK   91  A    between atoms: _226  and  _227
REMARK   92  A    between atoms: _233  and  _234
REMARK   93  A    between atoms: _239  and  _241
REMARK   94  A    between atoms: _241  and  _242
REMARK   95  A    between atoms: _241  and  _244
REMARK   96  A    between atoms: _247  and  _249
REMARK   97  A    between atoms: _249  and  _250
REMARK   98  A    between atoms: _249  and  _252
REMARK   99  A    between atoms: _252  and  _253
REMARK  100  A    between atoms: _253  and  _254
REMARK  101  A    between atoms: _254  and  _255
REMARK  102  A    between atoms: _255  and  _256
REMARK  103  A    between atoms: _260  and  _262
REMARK  104  A    between atoms: _262  and  _263
REMARK  105  A    between atoms: _262  and  _265
REMARK  106  A    between atoms: _265  and  _266
REMARK  107  A    between atoms: _268  and  _270
REMARK  108  A    between atoms: _270  and  _271
REMARK  109  A    between atoms: _270  and  _273
REMARK  110  A    between atoms: _273  and  _274
REMARK  111  A    between atoms: _274  and  _275
REMARK  112  A    between atoms: _280  and  _282
REMARK  113  A    between atoms: _282  and  _283
REMARK  114  A    between atoms: _282  and  _285
REMARK  115  A    between atoms: _285  and  _286
REMARK  116  A    between atoms: _288  and  _290
REMARK  117  A    between atoms: _290  and  _291
REMARK  118  A    between atoms: _290  and  _293
REMARK  119  A    between atoms: _293  and  _294
REMARK  120  A    between atoms: _297  and  _299
REMARK  121  A    between atoms: _299  and  _300
REMARK  122  A    between atoms: _299  and  _302
REMARK  123  A    between atoms: _305  and  _307
REMARK  124  A    between atoms: _307  and  _308
REMARK  125  A    between atoms: _310  and  _312
REMARK  126  A    between atoms: _312  and  _313
REMARK  127  A    between atoms: _316  and  _318
REMARK  128  A    between atoms: _318  and  _319
REMARK  129  A    between atoms: _321  and  _323
REMARK  130  A    between atoms: _323  and  _324
REMARK  131  A    between atoms: _323  and  _326
REMARK  132  A    between atoms: _326  and  _327
REMARK  133  A    between atoms: _330  and  _332
REMARK  134  A    between atoms: _332  and  _333
REMARK  135  A    between atoms: _332  and  _335
REMARK  136  A    between atoms: _335  and  _336
REMARK  137  A    between atoms: _338  and  _340
REMARK  138  A    between atoms: _340  and  _341
REMARK  139  A    between atoms: _340  and  _343
REMARK  140  A    between atoms: _343  and  _344
REMARK  141  A    between atoms: _344  and  _345
REMARK  142  A    between atoms: _347  and  _349
REMARK  143  A    between atoms: _349  and  _350
REMARK  144  A    between atoms: _349  and  _352
REMARK  145  A    between atoms: _355  and  _357
REMARK  146  A    between atoms: _357  and  _358
REMARK  147  A    between atoms: _357  and  _360
REMARK  148  A    between atoms: _360  and  _361
REMARK  149  A    between atoms: _361  and  _362
REMARK  150  A    between atoms: _364  and  _366
REMARK  151  A    between atoms: _366  and  _367
REMARK  152  A    between atoms: _366  and  _369
REMARK  153  A    between atoms: _372  and  _374
REMARK  154  A    between atoms: _374  and  _375
REMARK  155  A    between atoms: _374  and  _377
REMARK  156  A    between atoms: _377  and  _378
REMARK  157  A    between atoms: _378  and  _379
REMARK  158  A    between atoms: _379  and  _380
REMARK  159  A    between atoms: _389  and  _391
REMARK  160  A    between atoms: _391  and  _392
REMARK  161  A    between atoms: _391  and  _394
REMARK  162  A    between atoms: _394  and  _395
REMARK  163  A    between atoms: _401  and  _403
REMARK  164  A    between atoms: _403  and  _404
REMARK  165  A    between atoms: _406  and  _408
REMARK  166  A    between atoms: _408  and  _409
REMARK  167  A    between atoms: _408  and  _411
REMARK  168  A    between atoms: _414  and  _416
REMARK  169  A    between atoms: _416  and  _417
REMARK  170  A    between atoms: _420  and  _422
REMARK  171  A    between atoms: _422  and  _423
REMARK  172  A    between atoms: _426  and  _428
REMARK  173  A    between atoms: _428  and  _429
REMARK  174  A    between atoms: _431  and  _433
REMARK  175  A    between atoms: _433  and  _434
REMARK  176  A    between atoms: _433  and  _436
REMARK  177  A    between atoms: _436  and  _437
REMARK  178  A    between atoms: _439  and  _441
REMARK  179  A    between atoms: _441  and  _442
REMARK  180  A    between atoms: _445  and  _447
REMARK  181  A    between atoms: _447  and  _448
REMARK  182  A    between atoms: _451  and  _453
REMARK  183  A    between atoms: _453  and  _454
REMARK  184  A    between atoms: _453  and  _456
REMARK  185  A    between atoms: _456  and  _457
REMARK  186  A    between atoms: _460  and  _462
REMARK  187  A    between atoms: _462  and  _463
REMARK  188  A    between atoms: _462  and  _465
REMARK  189  A    between atoms: _465  and  _466
REMARK  190  A    between atoms: _469  and  _471
REMARK  191  A    between atoms: _471  and  _472
REMARK  192  A    between atoms: _471  and  _474
REMARK  193  A    between atoms: _474  and  _475
REMARK  194  A    between atoms: _478  and  _480
REMARK  195  A    between atoms: _480  and  _481
REMARK  196  A    between atoms: _480  and  _483
REMARK  197  A    between atoms: _483  and  _484
REMARK  198  A    between atoms: _487  and  _489
REMARK  199  A    between atoms: _489  and  _490
REMARK  200  A    between atoms: _489  and  _492
REMARK  201  A    between atoms: _492  and  _493
REMARK  202  A    between atoms: _496  and  _498
REMARK  203  A    between atoms: _498  and  _499
REMARK  204  A    between atoms: _498  and  _501
REMARK  205  A    between atoms: _501  and  _502
REMARK  206  A    between atoms: _502  and  _503
REMARK  207  A    between atoms: _506  and  _508
REMARK  208  A    between atoms: _508  and  _509
REMARK  209  A    between atoms: _511  and  _513
REMARK  210  A    between atoms: _513  and  _514
REMARK  211  A    between atoms: _513  and  _516
REMARK  212  A    between atoms: _516  and  _517
REMARK  213  A    between atoms: _517  and  _518
REMARK  214  A    between atoms: _518  and  _519
REMARK  215  A    between atoms: _519  and  _520
REMARK  216  A    between atoms: _524  and  _526
REMARK  217  A    between atoms: _526  and  _527
REMARK  218  A    between atoms: _526  and  _529
REMARK  219  A    between atoms: _529  and  _530
REMARK  220  A    between atoms: _530  and  _531
REMARK  221  A    between atoms: _537  and  _538
REMARK  222  A    between atoms: _543  and  _545
REMARK  223  A    between atoms: _545  and  _546
REMARK  224  A    between atoms: _545  and  _548
REMARK  225  A    between atoms: _548  and  _549
REMARK  226  A    between atoms: _549  and  _550
REMARK                            x       y       z     vdW  Elec       q    Type
REMARK                         _______ _______ _______ _____ _____    ______ ____
ROOT
ATOM      1 MG   UNL     1      10.142 -15.617  13.503  0.00  0.00    +0.000 Mg
ATOM      2  O   UNL     1       8.239 -16.432  12.628  0.00  0.00    +0.000 OA
ATOM      3  O   UNL     1      11.075 -16.416  11.556  0.00  0.00    +0.000 OA
ENDROOT
TORSDOF 0
REMARK  Name = ../refined-set-2016/3umo/3umo_pocket.pdb
REMARK  226 active torsions:
REMARK  status: ('A' for Active; 'I' for Inactive)
REMARK    1  A    between atoms: _1  and  _3
REMARK    2  A    between atoms: _3  and  _4
REMARK    3  A    between atoms: _6  and  _8
REMARK    4  A    between atoms: _8  and  _9
REMARK    5  A    between atoms: _8  and  _11
REMARK    6  A    between atoms: _11  and  _12
REMARK    7  A    between atoms: _17  and  _19
REMARK    8  A    between atoms: _19  and  _20
REMARK    9  A    between atoms: _19  and  _22
REMARK   10  A    between atoms: _22  and  _23
REMARK   11  A    between atoms: _23  and  _24
REMARK   12  A    between atoms: _24  and  _25
REMARK   13  A    between atoms: _34  and  _36
REMARK   14  A    between atoms: _36  and  _37
REMARK   15  A    between atoms: _36  and  _39
REMARK   16  A    between atoms: _39  and  _40
REMARK   17  A    between atoms: _42  and  _44
REMARK   18  A    between atoms: _44  and  _45
REMARK   19  A    between atoms: _44  and  _47
REMARK   20  A    between atoms: _47  and  _48
REMARK   21  A    between atoms: _51  and  _53
REMARK   22  A    between atoms: _53  and  _54
REMARK   23  A    between atoms: _53  and  _56
REMARK   24  A    between atoms: _56  and  _57
REMARK   25  A    between atoms: _59  and  _61
REMARK   26  A    between atoms: _61  and  _62
REMARK   27  A    between atoms: _61  and  _64
REMARK   28  A    between atoms: _64  and  _65
REMARK   29  A    between atoms: _65  and  _66
REMARK   30  A    between atoms: _66  and  _67
REMARK   31  A    between atoms: _67  and  _68
REMARK   32  A    between atoms: _73  and  _74
REMARK   33  A    between atoms: _79  and  _81
REMARK   34  A    between atoms: _81  and  _82
REMARK   35  A    between atoms: _81  and  _84
REMARK   36  A    between atoms: _84  and  _85
REMARK   37  A    between atoms: _90  and  _92
REMARK   38  A    between atoms: _92  and  _93
REMARK   39  A    between atoms: _92  and  _95
REMARK   40  A    between atoms: _95  and  _96
REMARK   41  A    between atoms: _96  and  _97
REMARK   42  A    between atoms: _102  and  _104
REMARK   43  A    between atoms: _104  and  _105
REMARK   44  A    between atoms: _104  and  _107
REMARK   45  A    between atoms: _107  and  _108
REMARK   46  A    between atoms: _108  and  _109
REMARK   47  A    between atoms: _109  and  _110
REMARK   48  A    between atoms: _110  and  _111
REMARK   49  A    between atoms: _115  and  _117
REMARK   50  A    between atoms: _117  and  _118
REMARK   51  A    between atoms: _117  and  _120
REMARK   52  A    between atoms: _120  and  _121
REMARK   53  A    between atoms: _121  and  _122
REMARK   54  A    between atoms: _125  and  _127
REMARK   55  A    between atoms: _127  and  _128
REMARK   56  A    between atoms: _127  and  _130
REMARK   57  A    between atoms: _133  and  _135
REMARK   58  A    between atoms: _135  and  _136
REMARK   59  A    between atoms: _135  and  _138
REMARK   60  A    between atoms: _141  and  _143
REMARK   61  A    between atoms: _143  and  _144
REMARK   62  A    between atoms: _143  and  _146
REMARK   63  A    between atoms: _146  and  _147
REMARK   64  A    between atoms: _149  and  _151
REMARK   65  A    between atoms: _151  and  _152
REMARK   66  A    between atoms: _151  and  _154
REMARK   67  A    between atoms: _154  and  _155
REMARK   68  A    between atoms: _158  and  _160
REMARK   69  A    between atoms: _160  and  _161
REMARK   70  A    between atoms: _164  and  _165
REMARK   71  A    between atoms: _170  and  _172
REMARK   72  A    between atoms: _172  and  _173
REMARK   73  A    between atoms: _172  and  _175
REMARK   74  A    between atoms: _175  and  _176
REMARK   75  A    between atoms: _176  and  _177
REMARK   76  A    between atoms: _182  and  _184
REMARK   77  A    between atoms: _184  and  _185
REMARK   78  A    between atoms: _187  and  _189
REMARK   79  A    between atoms: _189  and  _190
REMARK   80  A    between atoms: _193  and  _195
REMARK   81  A    between atoms: _195  and  _196
REMARK   82  A    between atoms: _195  and  _198
REMARK   83  A    between atoms: _198  and  _199
REMARK   84  A    between atoms: _202  and  _204
REMARK   85  A    between atoms: _204  and  _205
REMARK   86  A    between atoms: _204  and  _207
REMARK   87  A    between atoms: _210  and  _212
REMARK   88  A    between atoms: _212  and  _213
REMARK   89  A    between atoms: _212  and  _215
REMARK   90  A    between atoms: _219  and  _220
REMARK   91  A    between atoms: _226  and  _227
REMARK   92  A    between atoms: _233  and  _234
REMARK   93  A    between atoms: _239  and  _241
REMARK   94  A    between atoms: _241  and  _242
REMARK   95  A    between atoms: _241  and  _244
REMARK   96  A    between atoms: _247  and  _249
REMARK   97  A    between atoms: _249  and  _250
REMARK   98  A    between atoms: _249  and  _252
REMARK   99  A    between atoms: _252  and  _253
REMARK  100  A    between atoms: _253  and  _254
REMARK  101  A    between atoms: _254  and  _255
REMARK  102  A    between atoms: _255  and  _256
REMARK  103  A    between atoms: _260  and  _262
REMARK  104  A    between atoms: _262  and  _263
REMARK  105  A    between atoms: _262  and  _265
REMARK  106  A    between atoms: _265  and  _266
REMARK  107  A    between atoms: _268  and  _270
REMARK  108  A    between atoms: _270  and  _271
REMARK  109  A    between atoms: _270  and  _273
REMARK  110  A    between atoms: _273  and  _274
REMARK  111  A    between atoms: _274  and  _275
REMARK  112  A    between atoms: _280  and  _282
REMARK  113  A    between atoms: _282  and  _283
REMARK  114  A    between atoms: _282  and  _285
REMARK  115  A    between atoms: _285  and  _286
REMARK  116  A    between atoms: _288  and  _290
REMARK  117  A    between atoms: _290  and  _291
REMARK  118  A    between atoms: _290  and  _293
REMARK  119  A    between atoms: _293  and  _294
REMARK  120  A    between atoms: _297  and  _299
REMARK  121  A    between atoms: _299  and  _300
REMARK  122  A    between atoms: _299  and  _302
REMARK  123  A    between atoms: _305  and  _307
REMARK  124  A    between atoms: _307  and  _308
REMARK  125  A    between atoms: _310  and  _312
REMARK  126  A    between atoms: _312  and  _313
REMARK  127  A    between atoms: _316  and  _318
REMARK  128  A    between atoms: _318  and  _319
REMARK  129  A    between atoms: _321  and  _323
REMARK  130  A    between atoms: _323  and  _324
REMARK  131  A    between atoms: _323  and  _326
REMARK  132  A    between atoms: _326  and  _327
REMARK  133  A    between atoms: _330  and  _332
REMARK  134  A    between atoms: _332  and  _333
REMARK  135  A    between atoms: _332  and  _335
REMARK  136  A    between atoms: _335  and  _336
REMARK  137  A    between atoms: _338  and  _340
REMARK  138  A    between atoms: _340  and  _341
REMARK  139  A    between atoms: _340  and  _343
REMARK  140  A    between atoms: _343  and  _344
REMARK  141  A    between atoms: _344  and  _345
REMARK  142  A    between atoms: _347  and  _349
REMARK  143  A    between atoms: _349  and  _350
REMARK  144  A    between atoms: _349  and  _352
REMARK  145  A    between atoms: _355  and  _357
REMARK  146  A    between atoms: _357  and  _358
REMARK  147  A    between atoms: _357  and  _360
REMARK  148  A    between atoms: _360  and  _361
REMARK  149  A    between atoms: _361  and  _362
REMARK  150  A    between atoms: _364  and  _366
REMARK  151  A    between atoms: _366  and  _367
REMARK  152  A    between atoms: _366  and  _369
REMARK  153  A    between atoms: _372  and  _374
REMARK  154  A    between atoms: _374  and  _375
REMARK  155  A    between atoms: _374  and  _377
REMARK  156  A    between atoms: _377  and  _378
REMARK  157  A    between atoms: _378  and  _379
REMARK  158  A    between atoms: _379  and  _380
REMARK  159  A    between atoms: _389  and  _391
REMARK  160  A    between atoms: _391  and  _392
REMARK  161  A    between atoms: _391  and  _394
REMARK  162  A    between atoms: _394  and  _395
REMARK  163  A    between atoms: _401  and  _403
REMARK  164  A    between atoms: _403  and  _404
REMARK  165  A    between atoms: _406  and  _408
REMARK  166  A    between atoms: _408  and  _409
REMARK  167  A    between atoms: _408  and  _411
REMARK  168  A    between atoms: _414  and  _416
REMARK  169  A    between atoms: _416  and  _417
REMARK  170  A    between atoms: _420  and  _422
REMARK  171  A    between atoms: _422  and  _423
REMARK  172  A    between atoms: _426  and  _428
REMARK  173  A    between atoms: _428  and  _429
REMARK  174  A    between atoms: _431  and  _433
REMARK  175  A    between atoms: _433  and  _434
REMARK  176  A    between atoms: _433  and  _436
REMARK  177  A    between atoms: _436  and  _437
REMARK  178  A    between atoms: _439  and  _441
REMARK  179  A    between atoms: _441  and  _442
REMARK  180  A    between atoms: _445  and  _447
REMARK  181  A    between atoms: _447  and  _448
REMARK  182  A    between atoms: _451  and  _453
REMARK  183  A    between atoms: _453  and  _454
REMARK  184  A    between atoms: _453  and  _456
REMARK  185  A    between atoms: _456  and  _457
REMARK  186  A    between atoms: _460  and  _462
REMARK  187  A    between atoms: _462  and  _463
REMARK  188  A    between atoms: _462  and  _465
REMARK  189  A    between atoms: _465  and  _466
REMARK  190  A    between atoms: _469  and  _471
REMARK  191  A    between atoms: _471  and  _472
REMARK  192  A    between atoms: _471  and  _474
REMARK  193  A    between atoms: _474  and  _475
REMARK  194  A    between atoms: _478  and  _480
REMARK  195  A    between atoms: _480  and  _481
REMARK  196  A    between atoms: _480  and  _483
REMARK  197  A    between atoms: _483  and  _484
REMARK  198  A    between atoms: _487  and  _489
REMARK  199  A    between atoms: _489  and  _490
REMARK  200  A    between atoms: _489  and  _492
REMARK  201  A    between atoms: _492  and  _493
REMARK  202  A    between atoms: _496  and  _498
REMARK  203  A    between atoms: _498  and  _499
REMARK  204  A    between atoms: _498  and  _501
REMARK  205  A    between atoms: _501  and  _502
REMARK  206  A    between atoms: _502  and  _503
REMARK  207  A    between atoms: _506  and  _508
REMARK  208  A    between atoms: _508  and  _509
REMARK  209  A    between atoms: _511  and  _513
REMARK  210  A    between atoms: _513  and  _514
REMARK  211  A    between atoms: _513  and  _516
REMARK  212  A    between atoms: _516  and  _517
REMARK  213  A    between atoms: _517  and  _518
REMARK  214  A    between atoms: _518  and  _519
REMARK  215  A    between atoms: _519  and  _520
REMARK  216  A    between atoms: _524  and  _526
REMARK  217  A    between atoms: _526  and  _527
REMARK  218  A    between atoms: _526  and  _529
REMARK  219  A    between atoms: _529  and  _530
REMARK  220  A    between atoms: _530  and  _531
REMARK  221  A    between atoms: _537  and  _538
REMARK  222  A    between atoms: _543  and  _545
REMARK  223  A    between atoms: _545  and  _546
REMARK  224  A    between atoms: _545  and  _548
REMARK  225  A    between atoms: _548  and  _549
REMARK  226  A    between atoms: _549  and  _550
REMARK                            x       y       z     vdW  Elec       q    Type
REMARK                         _______ _______ _______ _____ _____    ______ ____
ROOT
ATOM      1  O   HOH     1      16.127 -19.564  20.331  0.00  0.00    +0.000 OA
ENDROOT
TORSDOF 0
REMARK  Name = ../refined-set-2016/3umo/3umo_pocket.pdb
REMARK  226 active torsions:
REMARK  status: ('A' for Active; 'I' for Inactive)
REMARK    1  A    between atoms: _1  and  _3
REMARK    2  A    between atoms: _3  and  _4
REMARK    3  A    between atoms: _6  and  _8
REMARK    4  A    between atoms: _8  and  _9
REMARK    5  A    between atoms: _8  and  _11
REMARK    6  A    between atoms: _11  and  _12
REMARK    7  A    between atoms: _17  and  _19
REMARK    8  A    between atoms: _19  and  _20
REMARK    9  A    between atoms: _19  and  _22
REMARK   10  A    between atoms: _22  and  _23
REMARK   11  A    between atoms: _23  and  _24
REMARK   12  A    between atoms: _24  and  _25
REMARK   13  A    between atoms: _34  and  _36
REMARK   14  A    between atoms: _36  and  _37
REMARK   15  A    between atoms: _36  and  _39
REMARK   16  A    between atoms: _39  and  _40
REMARK   17  A    between atoms: _42  and  _44
REMARK   18  A    between atoms: _44  and  _45
REMARK   19  A    between atoms: _44  and  _47
REMARK   20  A    between atoms: _47  and  _48
REMARK   21  A    between atoms: _51  and  _53
REMARK   22  A    between atoms: _53  and  _54
REMARK   23  A    between atoms: _53  and  _56
REMARK   24  A    between atoms: _56  and  _57
REMARK   25  A    between atoms: _59  and  _61
REMARK   26  A    between atoms: _61  and  _62
REMARK   27  A    between atoms: _61  and  _64
REMARK   28  A    between atoms: _64  and  _65
REMARK   29  A    between atoms: _65  and  _66
REMARK   30  A    between atoms: _66  and  _67
REMARK   31  A    between atoms: _67  and  _68
REMARK   32  A    between atoms: _73  and  _74
REMARK   33  A    between atoms: _79  and  _81
REMARK   34  A    between atoms: _81  and  _82
REMARK   35  A    between atoms: _81  and  _84
REMARK   36  A    between atoms: _84  and  _85
REMARK   37  A    between atoms: _90  and  _92
REMARK   38  A    between atoms: _92  and  _93
REMARK   39  A    between atoms: _92  and  _95
REMARK   40  A    between atoms: _95  and  _96
REMARK   41  A    between atoms: _96  and  _97
REMARK   42  A    between atoms: _102  and  _104
REMARK   43  A    between atoms: _104  and  _105
REMARK   44  A    between atoms: _104  and  _107
REMARK   45  A    between atoms: _107  and  _108
REMARK   46  A    between atoms: _108  and  _109
REMARK   47  A    between atoms: _109  and  _110
REMARK   48  A    between atoms: _110  and  _111
REMARK   49  A    between atoms: _115  and  _117
REMARK   50  A    between atoms: _117  and  _118
REMARK   51  A    between atoms: _117  and  _120
REMARK   52  A    between atoms: _120  and  _121
REMARK   53  A    between atoms: _121  and  _122
REMARK   54  A    between atoms: _125  and  _127
REMARK   55  A    between atoms: _127  and  _128
REMARK   56  A    between atoms: _127  and  _130
REMARK   57  A    between atoms: _133  and  _135
REMARK   58  A    between atoms: _135  and  _136
REMARK   59  A    between atoms: _135  and  _138
REMARK   60  A    between atoms: _141  and  _143
REMARK   61  A    between atoms: _143  and  _144
REMARK   62  A    between atoms: _143  and  _146
REMARK   63  A    between atoms: _146  and  _147
REMARK   64  A    between atoms: _149  and  _151
REMARK   65  A    between atoms: _151  and  _152
REMARK   66  A    between atoms: _151  and  _154
REMARK   67  A    between atoms: _154  and  _155
REMARK   68  A    between atoms: _158  and  _160
REMARK   69  A    between atoms: _160  and  _161
REMARK   70  A    between atoms: _164  and  _165
REMARK   71  A    between atoms: _170  and  _172
REMARK   72  A    between atoms: _172  and  _173
REMARK   73  A    between atoms: _172  and  _175
REMARK   74  A    between atoms: _175  and  _176
REMARK   75  A    between atoms: _176  and  _177
REMARK   76  A    between atoms: _182  and  _184
REMARK   77  A    between atoms: _184  and  _185
REMARK   78  A    between atoms: _187  and  _189
REMARK   79  A    between atoms: _189  and  _190
REMARK   80  A    between atoms: _193  and  _195
REMARK   81  A    between atoms: _195  and  _196
REMARK   82  A    between atoms: _195  and  _198
REMARK   83  A    between atoms: _198  and  _199
REMARK   84  A    between atoms: _202  and  _204
REMARK   85  A    between atoms: _204  and  _205
REMARK   86  A    between atoms: _204  and  _207
REMARK   87  A    between atoms: _210  and  _212
REMARK   88  A    between atoms: _212  and  _213
REMARK   89  A    between atoms: _212  and  _215
REMARK   90  A    between atoms: _219  and  _220
REMARK   91  A    between atoms: _226  and  _227
REMARK   92  A    between atoms: _233  and  _234
REMARK   93  A    between atoms: _239  and  _241
REMARK   94  A    between atoms: _241  and  _242
REMARK   95  A    between atoms: _241  and  _244
REMARK   96  A    between atoms: _247  and  _249
REMARK   97  A    between atoms: _249  and  _250
REMARK   98  A    between atoms: _249  and  _252
REMARK   99  A    between atoms: _252  and  _253
REMARK  100  A    between atoms: _253  and  _254
REMARK  101  A    between atoms: _254  and  _255
REMARK  102  A    between atoms: _255  and  _256
REMARK  103  A    between atoms: _260  and  _262
REMARK  104  A    between atoms: _262  and  _263
REMARK  105  A    between atoms: _262  and  _265
REMARK  106  A    between atoms: _265  and  _266
REMARK  107  A    between atoms: _268  and  _270
REMARK  108  A    between atoms: _270  and  _271
REMARK  109  A    between atoms: _270  and  _273
REMARK  110  A    between atoms: _273  and  _274
REMARK  111  A    between atoms: _274  and  _275
REMARK  112  A    between atoms: _280  and  _282
REMARK  113  A    between atoms: _282  and  _283
REMARK  114  A    between atoms: _282  and  _285
REMARK  115  A    between atoms: _285  and  _286
REMARK  116  A    between atoms: _288  and  _290
REMARK  117  A    between atoms: _290  and  _291
REMARK  118  A    between atoms: _290  and  _293
REMARK  119  A    between atoms: _293  and  _294
REMARK  120  A    between atoms: _297  and  _299
REMARK  121  A    between atoms: _299  and  _300
REMARK  122  A    between atoms: _299  and  _302
REMARK  123  A    between atoms: _305  and  _307
REMARK  124  A    between atoms: _307  and  _308
REMARK  125  A    between atoms: _310  and  _312
REMARK  126  A    between atoms: _312  and  _313
REMARK  127  A    between atoms: _316  and  _318
REMARK  128  A    between atoms: _318  and  _319
REMARK  129  A    between atoms: _321  and  _323
REMARK  130  A    between atoms: _323  and  _324
REMARK  131  A    between atoms: _323  and  _326
REMARK  132  A    between atoms: _326  and  _327
REMARK  133  A    between atoms: _330  and  _332
REMARK  134  A    between atoms: _332  and  _333
REMARK  135  A    between atoms: _332  and  _335
REMARK  136  A    between atoms: _335  and  _336
REMARK  137  A    between atoms: _338  and  _340
REMARK  138  A    between atoms: _340  and  _341
REMARK  139  A    between atoms: _340  and  _343
REMARK  140  A    between atoms: _343  and  _344
REMARK  141  A    between atoms: _344  and  _345
REMARK  142  A    between atoms: _347  and  _349
REMARK  143  A    between atoms: _349  and  _350
REMARK  144  A    between atoms: _349  and  _352
REMARK  145  A    between atoms: _355  and  _357
REMARK  146  A    between atoms: _357  and  _358
REMARK  147  A    between atoms: _357  and  _360
REMARK  148  A    between atoms: _360  and  _361
REMARK  149  A    between atoms: _361  and  _362
REMARK  150  A    between atoms: _364  and  _366
REMARK  151  A    between atoms: _366  and  _367
REMARK  152  A    between atoms: _366  and  _369
REMARK  153  A    between atoms: _372  and  _374
REMARK  154  A    between atoms: _374  and  _375
REMARK  155  A    between atoms: _374  and  _377
REMARK  156  A    between atoms: _377  and  _378
REMARK  157  A    between atoms: _378  and  _379
REMARK  158  A    between atoms: _379  and  _380
REMARK  159  A    between atoms: _389  and  _391
REMARK  160  A    between atoms: _391  and  _392
REMARK  161  A    between atoms: _391  and  _394
REMARK  162  A    between atoms: _394  and  _395
REMARK  163  A    between atoms: _401  and  _403
REMARK  164  A    between atoms: _403  and  _404
REMARK  165  A    between atoms: _406  and  _408
REMARK  166  A    between atoms: _408  and  _409
REMARK  167  A    between atoms: _408  and  _411
REMARK  168  A    between atoms: _414  and  _416
REMARK  169  A    between atoms: _416  and  _417
REMARK  170  A    between atoms: _420  and  _422
REMARK  171  A    between atoms: _422  and  _423
REMARK  172  A    between atoms: _426  and  _428
REMARK  173  A    between atoms: _428  and  _429
REMARK  174  A    between atoms: _431  and  _433
REMARK  175  A    between atoms: _433  and  _434
REMARK  176  A    between atoms: _433  and  _436
REMARK  177  A    between atoms: _436  and  _437
REMARK  178  A    between atoms: _439  and  _441
REMARK  179  A    between atoms: _441  and  _442
REMARK  180  A    between atoms: _445  and  _447
REMARK  181  A    between atoms: _447  and  _448
REMARK  182  A    between atoms: _451  and  _453
REMARK  183  A    between atoms: _453  and  _454
REMARK  184  A    between atoms: _453  and  _456
REMARK  185  A    between atoms: _456  and  _457
REMARK  186  A    between atoms: _460  and  _462
REMARK  187  A    between atoms: _462  and  _463
REMARK  188  A    between atoms: _462  and  _465
REMARK  189  A    between atoms: _465  and  _466
REMARK  190  A    between atoms: _469  and  _471
REMARK  191  A    between atoms: _471  and  _472
REMARK  192  A    between atoms: _471  and  _474
REMARK  193  A    between atoms: _474  and  _475
REMARK  194  A    between atoms: _478  and  _480
REMARK  195  A    between atoms: _480  and  _481
REMARK  196  A    between atoms: _480  and  _483
REMARK  197  A    between atoms: _483  and  _484
REMARK  198  A    between atoms: _487  and  _489
REMARK  199  A    between atoms: _489  and  _490
REMARK  200  A    between atoms: _489  and  _492
REMARK  201  A    between atoms: _492  and  _493
REMARK  202  A    between atoms: _496  and  _498
REMARK  203  A    between atoms: _498  and  _499
REMARK  204  A    between atoms: _498  and  _501
REMARK  205  A    between atoms: _501  and  _502
REMARK  206  A    between atoms: _502  and  _503
REMARK  207  A    between atoms: _506  and  _508
REMARK  208  A    between atoms: _508  and  _509
REMARK  209  A    between atoms: _511  and  _513
REMARK  210  A    between atoms: _513  and  _514
REMARK  211  A    between atoms: _513  and  _516
REMARK  212  A    between atoms: _516  and  _517
REMARK  213  A    between atoms: _517  and  _518
REMARK  214  A    between atoms: _518  and  _519
REMARK  215  A    between atoms: _519  and  _520
REMARK  216  A    between atoms: _524  and  _526
REMARK  217  A    between atoms: _526  and  _527
REMARK  218  A    between atoms: _526  and  _529
REMARK  219  A    between atoms: _529  and  _530
REMARK  220  A    between atoms: _530  and  _531
REMARK  221  A    between atoms: _537  and  _538
REMARK  222  A    between atoms: _543  and  _545
REMARK  223  A    between atoms: _545  and  _546
REMARK  224  A    between atoms: _545  and  _548
REMARK  225  A    between atoms: _548  and  _549
REMARK  226  A    between atoms: _549  and  _550
REMARK                            x       y       z     vdW  Elec       q    Type
REMARK                         _______ _______ _______ _____ _____    ______ ____
ROOT
ATOM      1  O   HOH     1      10.474 -18.892  11.062  0.00  0.00    +0.000 OA
ENDROOT
TORSDOF 0
REMARK  Name = ../refined-set-2016/3umo/3umo_pocket.pdb
REMARK  226 active torsions:
REMARK  status: ('A' for Active; 'I' for Inactive)
REMARK    1  A    between atoms: _1  and  _3
REMARK    2  A    between atoms: _3  and  _4
REMARK    3  A    between atoms: _6  and  _8
REMARK    4  A    between atoms: _8  and  _9
REMARK    5  A    between atoms: _8  and  _11
REMARK    6  A    between atoms: _11  and  _12
REMARK    7  A    between atoms: _17  and  _19
REMARK    8  A    between atoms: _19  and  _20
REMARK    9  A    between atoms: _19  and  _22
REMARK   10  A    between atoms: _22  and  _23
REMARK   11  A    between atoms: _23  and  _24
REMARK   12  A    between atoms: _24  and  _25
REMARK   13  A    between atoms: _34  and  _36
REMARK   14  A    between atoms: _36  and  _37
REMARK   15  A    between atoms: _36  and  _39
REMARK   16  A    between atoms: _39  and  _40
REMARK   17  A    between atoms: _42  and  _44
REMARK   18  A    between atoms: _44  and  _45
REMARK   19  A    between atoms: _44  and  _47
REMARK   20  A    between atoms: _47  and  _48
REMARK   21  A    between atoms: _51  and  _53
REMARK   22  A    between atoms: _53  and  _54
REMARK   23  A    between atoms: _53  and  _56
REMARK   24  A    between atoms: _56  and  _57
REMARK   25  A    between atoms: _59  and  _61
REMARK   26  A    between atoms: _61  and  _62
REMARK   27  A    between atoms: _61  and  _64
REMARK   28  A    between atoms: _64  and  _65
REMARK   29  A    between atoms: _65  and  _66
REMARK   30  A    between atoms: _66  and  _67
REMARK   31  A    between atoms: _67  and  _68
REMARK   32  A    between atoms: _73  and  _74
REMARK   33  A    between atoms: _79  and  _81
REMARK   34  A    between atoms: _81  and  _82
REMARK   35  A    between atoms: _81  and  _84
REMARK   36  A    between atoms: _84  and  _85
REMARK   37  A    between atoms: _90  and  _92
REMARK   38  A    between atoms: _92  and  _93
REMARK   39  A    between atoms: _92  and  _95
REMARK   40  A    between atoms: _95  and  _96
REMARK   41  A    between atoms: _96  and  _97
REMARK   42  A    between atoms: _102  and  _104
REMARK   43  A    between atoms: _104  and  _105
REMARK   44  A    between atoms: _104  and  _107
REMARK   45  A    between atoms: _107  and  _108
REMARK   46  A    between atoms: _108  and  _109
REMARK   47  A    between atoms: _109  and  _110
REMARK   48  A    between atoms: _110  and  _111
REMARK   49  A    between atoms: _115  and  _117
REMARK   50  A    between atoms: _117  and  _118
REMARK   51  A    between atoms: _117  and  _120
REMARK   52  A    between atoms: _120  and  _121
REMARK   53  A    between atoms: _121  and  _122
REMARK   54  A    between atoms: _125  and  _127
REMARK   55  A    between atoms: _127  and  _128
REMARK   56  A    between atoms: _127  and  _130
REMARK   57  A    between atoms: _133  and  _135
REMARK   58  A    between atoms: _135  and  _136
REMARK   59  A    between atoms: _135  and  _138
REMARK   60  A    between atoms: _141  and  _143
REMARK   61  A    between atoms: _143  and  _144
REMARK   62  A    between atoms: _143  and  _146
REMARK   63  A    between atoms: _146  and  _147
REMARK   64  A    between atoms: _149  and  _151
REMARK   65  A    between atoms: _151  and  _152
REMARK   66  A    between atoms: _151  and  _154
REMARK   67  A    between atoms: _154  and  _155
REMARK   68  A    between atoms: _158  and  _160
REMARK   69  A    between atoms: _160  and  _161
REMARK   70  A    between atoms: _164  and  _165
REMARK   71  A    between atoms: _170  and  _172
REMARK   72  A    between atoms: _172  and  _173
REMARK   73  A    between atoms: _172  and  _175
REMARK   74  A    between atoms: _175  and  _176
REMARK   75  A    between atoms: _176  and  _177
REMARK   76  A    between atoms: _182  and  _184
REMARK   77  A    between atoms: _184  and  _185
REMARK   78  A    between atoms: _187  and  _189
REMARK   79  A    between atoms: _189  and  _190
REMARK   80  A    between atoms: _193  and  _195
REMARK   81  A    between atoms: _195  and  _196
REMARK   82  A    between atoms: _195  and  _198
REMARK   83  A    between atoms: _198  and  _199
REMARK   84  A    between atoms: _202  and  _204
REMARK   85  A    between atoms: _204  and  _205
REMARK   86  A    between atoms: _204  and  _207
REMARK   87  A    between atoms: _210  and  _212
REMARK   88  A    between atoms: _212  and  _213
REMARK   89  A    between atoms: _212  and  _215
REMARK   90  A    between atoms: _219  and  _220
REMARK   91  A    between atoms: _226  and  _227
REMARK   92  A    between atoms: _233  and  _234
REMARK   93  A    between atoms: _239  and  _241
REMARK   94  A    between atoms: _241  and  _242
REMARK   95  A    between atoms: _241  and  _244
REMARK   96  A    between atoms: _247  and  _249
REMARK   97  A    between atoms: _249  and  _250
REMARK   98  A    between atoms: _249  and  _252
REMARK   99  A    between atoms: _252  and  _253
REMARK  100  A    between atoms: _253  and  _254
REMARK  101  A    between atoms: _254  and  _255
REMARK  102  A    between atoms: _255  and  _256
REMARK  103  A    between atoms: _260  and  _262
REMARK  104  A    between atoms: _262  and  _263
REMARK  105  A    between atoms: _262  and  _265
REMARK  106  A    between atoms: _265  and  _266
REMARK  107  A    between atoms: _268  and  _270
REMARK  108  A    between atoms: _270  and  _271
REMARK  109  A    between atoms: _270  and  _273
REMARK  110  A    between atoms: _273  and  _274
REMARK  111  A    between atoms: _274  and  _275
REMARK  112  A    between atoms: _280  and  _282
REMARK  113  A    between atoms: _282  and  _283
REMARK  114  A    between atoms: _282  and  _285
REMARK  115  A    between atoms: _285  and  _286
REMARK  116  A    between atoms: _288  and  _290
REMARK  117  A    between atoms: _290  and  _291
REMARK  118  A    between atoms: _290  and  _293
REMARK  119  A    between atoms: _293  and  _294
REMARK  120  A    between atoms: _297  and  _299
REMARK  121  A    between atoms: _299  and  _300
REMARK  122  A    between atoms: _299  and  _302
REMARK  123  A    between atoms: _305  and  _307
REMARK  124  A    between atoms: _307  and  _308
REMARK  125  A    between atoms: _310  and  _312
REMARK  126  A    between atoms: _312  and  _313
REMARK  127  A    between atoms: _316  and  _318
REMARK  128  A    between atoms: _318  and  _319
REMARK  129  A    between atoms: _321  and  _323
REMARK  130  A    between atoms: _323  and  _324
REMARK  131  A    between atoms: _323  and  _326
REMARK  132  A    between atoms: _326  and  _327
REMARK  133  A    between atoms: _330  and  _332
REMARK  134  A    between atoms: _332  and  _333
REMARK  135  A    between atoms: _332  and  _335
REMARK  136  A    between atoms: _335  and  _336
REMARK  137  A    between atoms: _338  and  _340
REMARK  138  A    between atoms: _340  and  _341
REMARK  139  A    between atoms: _340  and  _343
REMARK  140  A    between atoms: _343  and  _344
REMARK  141  A    between atoms: _344  and  _345
REMARK  142  A    between atoms: _347  and  _349
REMARK  143  A    between atoms: _349  and  _350
REMARK  144  A    between atoms: _349  and  _352
REMARK  145  A    between atoms: _355  and  _357
REMARK  146  A    between atoms: _357  and  _358
REMARK  147  A    between atoms: _357  and  _360
REMARK  148  A    between atoms: _360  and  _361
REMARK  149  A    between atoms: _361  and  _362
REMARK  150  A    between atoms: _364  and  _366
REMARK  151  A    between atoms: _366  and  _367
REMARK  152  A    between atoms: _366  and  _369
REMARK  153  A    between atoms: _372  and  _374
REMARK  154  A    between atoms: _374  and  _375
REMARK  155  A    between atoms: _374  and  _377
REMARK  156  A    between atoms: _377  and  _378
REMARK  157  A    between atoms: _378  and  _379
REMARK  158  A    between atoms: _379  and  _380
REMARK  159  A    between atoms: _389  and  _391
REMARK  160  A    between atoms: _391  and  _392
REMARK  161  A    between atoms: _391  and  _394
REMARK  162  A    between atoms: _394  and  _395
REMARK  163  A    between atoms: _401  and  _403
REMARK  164  A    between atoms: _403  and  _404
REMARK  165  A    between atoms: _406  and  _408
REMARK  166  A    between atoms: _408  and  _409
REMARK  167  A    between atoms: _408  and  _411
REMARK  168  A    between atoms: _414  and  _416
REMARK  169  A    between atoms: _416  and  _417
REMARK  170  A    between atoms: _420  and  _422
REMARK  171  A    between atoms: _422  and  _423
REMARK  172  A    between atoms: _426  and  _428
REMARK  173  A    between atoms: _428  and  _429
REMARK  174  A    between atoms: _431  and  _433
REMARK  175  A    between atoms: _433  and  _434
REMARK  176  A    between atoms: _433  and  _436
REMARK  177  A    between atoms: _436  and  _437
REMARK  178  A    between atoms: _439  and  _441
REMARK  179  A    between atoms: _441  and  _442
REMARK  180  A    between atoms: _445  and  _447
REMARK  181  A    between atoms: _447  and  _448
REMARK  182  A    between atoms: _451  and  _453
REMARK  183  A    between atoms: _453  and  _454
REMARK  184  A    between atoms: _453  and  _456
REMARK  185  A    between atoms: _456  and  _457
REMARK  186  A    between atoms: _460  and  _462
REMARK  187  A    between atoms: _462  and  _463
REMARK  188  A    between atoms: _462  and  _465
REMARK  189  A    between atoms: _465  and  _466
REMARK  190  A    between atoms: _469  and  _471
REMARK  191  A    between atoms: _471  and  _472
REMARK  192  A    between atoms: _471  and  _474
REMARK  193  A    between atoms: _474  and  _475
REMARK  194  A    between atoms: _478  and  _480
REMARK  195  A    between atoms: _480  and  _481
REMARK  196  A    between atoms: _480  and  _483
REMARK  197  A    between atoms: _483  and  _484
REMARK  198  A    between atoms: _487  and  _489
REMARK  199  A    between atoms: _489  and  _490
REMARK  200  A    between atoms: _489  and  _492
REMARK  201  A    between atoms: _492  and  _493
REMARK  202  A    between atoms: _496  and  _498
REMARK  203  A    between atoms: _498  and  _499
REMARK  204  A    between atoms: _498  and  _501
REMARK  205  A    between atoms: _501  and  _502
REMARK  206  A    between atoms: _502  and  _503
REMARK  207  A    between atoms: _506  and  _508
REMARK  208  A    between atoms: _508  and  _509
REMARK  209  A    between atoms: _511  and  _513
REMARK  210  A    between atoms: _513  and  _514
REMARK  211  A    between atoms: _513  and  _516
REMARK  212  A    between atoms: _516  and  _517
REMARK  213  A    between atoms: _517  and  _518
REMARK  214  A    between atoms: _518  and  _519
REMARK  215  A    between atoms: _519  and  _520
REMARK  216  A    between atoms: _524  and  _526
REMARK  217  A    between atoms: _526  and  _527
REMARK  218  A    between atoms: _526  and  _529
REMARK  219  A    between atoms: _529  and  _530
REMARK  220  A    between atoms: _530  and  _531
REMARK  221  A    between atoms: _537  and  _538
REMARK  222  A    between atoms: _543  and  _545
REMARK  223  A    between atoms: _545  and  _546
REMARK  224  A    between atoms: _545  and  _548
REMARK  225  A    between atoms: _548  and  _549
REMARK  226  A    between atoms: _549  and  _550
REMARK                            x       y       z     vdW  Elec       q    Type
REMARK                         _______ _______ _______ _____ _____    ______ ____
ROOT
ATOM      1  O   HOH     1       6.214 -15.350  19.289  0.00  0.00    +0.000 OA
ENDROOT
TORSDOF 0
REMARK  Name = ../refined-set-2016/3umo/3umo_pocket.pdb
REMARK  226 active torsions:
REMARK  status: ('A' for Active; 'I' for Inactive)
REMARK    1  A    between atoms: _1  and  _3
REMARK    2  A    between atoms: _3  and  _4
REMARK    3  A    between atoms: _6  and  _8
REMARK    4  A    between atoms: _8  and  _9
REMARK    5  A    between atoms: _8  and  _11
REMARK    6  A    between atoms: _11  and  _12
REMARK    7  A    between atoms: _17  and  _19
REMARK    8  A    between atoms: _19  and  _20
REMARK    9  A    between atoms: _19  and  _22
REMARK   10  A    between atoms: _22  and  _23
REMARK   11  A    between atoms: _23  and  _24
REMARK   12  A    between atoms: _24  and  _25
REMARK   13  A    between atoms: _34  and  _36
REMARK   14  A    between atoms: _36  and  _37
REMARK   15  A    between atoms: _36  and  _39
REMARK   16  A    between atoms: _39  and  _40
REMARK   17  A    between atoms: _42  and  _44
REMARK   18  A    between atoms: _44  and  _45
REMARK   19  A    between atoms: _44  and  _47
REMARK   20  A    between atoms: _47  and  _48
REMARK   21  A    between atoms: _51  and  _53
REMARK   22  A    between atoms: _53  and  _54
REMARK   23  A    between atoms: _53  and  _56
REMARK   24  A    between atoms: _56  and  _57
REMARK   25  A    between atoms: _59  and  _61
REMARK   26  A    between atoms: _61  and  _62
REMARK   27  A    between atoms: _61  and  _64
REMARK   28  A    between atoms: _64  and  _65
REMARK   29  A    between atoms: _65  and  _66
REMARK   30  A    between atoms: _66  and  _67
REMARK   31  A    between atoms: _67  and  _68
REMARK   32  A    between atoms: _73  and  _74
REMARK   33  A    between atoms: _79  and  _81
REMARK   34  A    between atoms: _81  and  _82
REMARK   35  A    between atoms: _81  and  _84
REMARK   36  A    between atoms: _84  and  _85
REMARK   37  A    between atoms: _90  and  _92
REMARK   38  A    between atoms: _92  and  _93
REMARK   39  A    between atoms: _92  and  _95
REMARK   40  A    between atoms: _95  and  _96
REMARK   41  A    between atoms: _96  and  _97
REMARK   42  A    between atoms: _102  and  _104
REMARK   43  A    between atoms: _104  and  _105
REMARK   44  A    between atoms: _104  and  _107
REMARK   45  A    between atoms: _107  and  _108
REMARK   46  A    between atoms: _108  and  _109
REMARK   47  A    between atoms: _109  and  _110
REMARK   48  A    between atoms: _110  and  _111
REMARK   49  A    between atoms: _115  and  _117
REMARK   50  A    between atoms: _117  and  _118
REMARK   51  A    between atoms: _117  and  _120
REMARK   52  A    between atoms: _120  and  _121
REMARK   53  A    between atoms: _121  and  _122
REMARK   54  A    between atoms: _125  and  _127
REMARK   55  A    between atoms: _127  and  _128
REMARK   56  A    between atoms: _127  and  _130
REMARK   57  A    between atoms: _133  and  _135
REMARK   58  A    between atoms: _135  and  _136
REMARK   59  A    between atoms: _135  and  _138
REMARK   60  A    between atoms: _141  and  _143
REMARK   61  A    between atoms: _143  and  _144
REMARK   62  A    between atoms: _143  and  _146
REMARK   63  A    between atoms: _146  and  _147
REMARK   64  A    between atoms: _149  and  _151
REMARK   65  A    between atoms: _151  and  _152
REMARK   66  A    between atoms: _151  and  _154
REMARK   67  A    between atoms: _154  and  _155
REMARK   68  A    between atoms: _158  and  _160
REMARK   69  A    between atoms: _160  and  _161
REMARK   70  A    between atoms: _164  and  _165
REMARK   71  A    between atoms: _170  and  _172
REMARK   72  A    between atoms: _172  and  _173
REMARK   73  A    between atoms: _172  and  _175
REMARK   74  A    between atoms: _175  and  _176
REMARK   75  A    between atoms: _176  and  _177
REMARK   76  A    between atoms: _182  and  _184
REMARK   77  A    between atoms: _184  and  _185
REMARK   78  A    between atoms: _187  and  _189
REMARK   79  A    between atoms: _189  and  _190
REMARK   80  A    between atoms: _193  and  _195
REMARK   81  A    between atoms: _195  and  _196
REMARK   82  A    between atoms: _195  and  _198
REMARK   83  A    between atoms: _198  and  _199
REMARK   84  A    between atoms: _202  and  _204
REMARK   85  A    between atoms: _204  and  _205
REMARK   86  A    between atoms: _204  and  _207
REMARK   87  A    between atoms: _210  and  _212
REMARK   88  A    between atoms: _212  and  _213
REMARK   89  A    between atoms: _212  and  _215
REMARK   90  A    between atoms: _219  and  _220
REMARK   91  A    between atoms: _226  and  _227
REMARK   92  A    between atoms: _233  and  _234
REMARK   93  A    between atoms: _239  and  _241
REMARK   94  A    between atoms: _241  and  _242
REMARK   95  A    between atoms: _241  and  _244
REMARK   96  A    between atoms: _247  and  _249
REMARK   97  A    between atoms: _249  and  _250
REMARK   98  A    between atoms: _249  and  _252
REMARK   99  A    between atoms: _252  and  _253
REMARK  100  A    between atoms: _253  and  _254
REMARK  101  A    between atoms: _254  and  _255
REMARK  102  A    between atoms: _255  and  _256
REMARK  103  A    between atoms: _260  and  _262
REMARK  104  A    between atoms: _262  and  _263
REMARK  105  A    between atoms: _262  and  _265
REMARK  106  A    between atoms: _265  and  _266
REMARK  107  A    between atoms: _268  and  _270
REMARK  108  A    between atoms: _270  and  _271
REMARK  109  A    between atoms: _270  and  _273
REMARK  110  A    between atoms: _273  and  _274
REMARK  111  A    between atoms: _274  and  _275
REMARK  112  A    between atoms: _280  and  _282
REMARK  113  A    between atoms: _282  and  _283
REMARK  114  A    between atoms: _282  and  _285
REMARK  115  A    between atoms: _285  and  _286
REMARK  116  A    between atoms: _288  and  _290
REMARK  117  A    between atoms: _290  and  _291
REMARK  118  A    between atoms: _290  and  _293
REMARK  119  A    between atoms: _293  and  _294
REMARK  120  A    between atoms: _297  and  _299
REMARK  121  A    between atoms: _299  and  _300
REMARK  122  A    between atoms: _299  and  _302
REMARK  123  A    between atoms: _305  and  _307
REMARK  124  A    between atoms: _307  and  _308
REMARK  125  A    between atoms: _310  and  _312
REMARK  126  A    between atoms: _312  and  _313
REMARK  127  A    between atoms: _316  and  _318
REMARK  128  A    between atoms: _318  and  _319
REMARK  129  A    between atoms: _321  and  _323
REMARK  130  A    between atoms: _323  and  _324
REMARK  131  A    between atoms: _323  and  _326
REMARK  132  A    between atoms: _326  and  _327
REMARK  133  A    between atoms: _330  and  _332
REMARK  134  A    between atoms: _332  and  _333
REMARK  135  A    between atoms: _332  and  _335
REMARK  136  A    between atoms: _335  and  _336
REMARK  137  A    between atoms: _338  and  _340
REMARK  138  A    between atoms: _340  and  _341
REMARK  139  A    between atoms: _340  and  _343
REMARK  140  A    between atoms: _343  and  _344
REMARK  141  A    between atoms: _344  and  _345
REMARK  142  A    between atoms: _347  and  _349
REMARK  143  A    between atoms: _349  and  _350
REMARK  144  A    between atoms: _349  and  _352
REMARK  145  A    between atoms: _355  and  _357
REMARK  146  A    between atoms: _357  and  _358
REMARK  147  A    between atoms: _357  and  _360
REMARK  148  A    between atoms: _360  and  _361
REMARK  149  A    between atoms: _361  and  _362
REMARK  150  A    between atoms: _364  and  _366
REMARK  151  A    between atoms: _366  and  _367
REMARK  152  A    between atoms: _366  and  _369
REMARK  153  A    between atoms: _372  and  _374
REMARK  154  A    between atoms: _374  and  _375
REMARK  155  A    between atoms: _374  and  _377
REMARK  156  A    between atoms: _377  and  _378
REMARK  157  A    between atoms: _378  and  _379
REMARK  158  A    between atoms: _379  and  _380
REMARK  159  A    between atoms: _389  and  _391
REMARK  160  A    between atoms: _391  and  _392
REMARK  161  A    between atoms: _391  and  _394
REMARK  162  A    between atoms: _394  and  _395
REMARK  163  A    between atoms: _401  and  _403
REMARK  164  A    between atoms: _403  and  _404
REMARK  165  A    between atoms: _406  and  _408
REMARK  166  A    between atoms: _408  and  _409
REMARK  167  A    between atoms: _408  and  _411
REMARK  168  A    between atoms: _414  and  _416
REMARK  169  A    between atoms: _416  and  _417
REMARK  170  A    between atoms: _420  and  _422
REMARK  171  A    between atoms: _422  and  _423
REMARK  172  A    between atoms: _426  and  _428
REMARK  173  A    between atoms: _428  and  _429
REMARK  174  A    between atoms: _431  and  _433
REMARK  175  A    between atoms: _433  and  _434
REMARK  176  A    between atoms: _433  and  _436
REMARK  177  A    between atoms: _436  and  _437
REMARK  178  A    between atoms: _439  and  _441
REMARK  179  A    between atoms: _441  and  _442
REMARK  180  A    between atoms: _445  and  _447
REMARK  181  A    between atoms: _447  and  _448
REMARK  182  A    between atoms: _451  and  _453
REMARK  183  A    between atoms: _453  and  _454
REMARK  184  A    between atoms: _453  and  _456
REMARK  185  A    between atoms: _456  and  _457
REMARK  186  A    between atoms: _460  and  _462
REMARK  187  A    between atoms: _462  and  _463
REMARK  188  A    between atoms: _462  and  _465
REMARK  189  A    between atoms: _465  and  _466
REMARK  190  A    between atoms: _469  and  _471
REMARK  191  A    between atoms: _471  and  _472
REMARK  192  A    between atoms: _471  and  _474
REMARK  193  A    between atoms: _474  and  _475
REMARK  194  A    between atoms: _478  and  _480
REMARK  195  A    between atoms: _480  and  _481
REMARK  196  A    between atoms: _480  and  _483
REMARK  197  A    between atoms: _483  and  _484
REMARK  198  A    between atoms: _487  and  _489
REMARK  199  A    between atoms: _489  and  _490
REMARK  200  A    between atoms: _489  and  _492
REMARK  201  A    between atoms: _492  and  _493
REMARK  202  A    between atoms: _496  and  _498
REMARK  203  A    between atoms: _498  and  _499
REMARK  204  A    between atoms: _498  and  _501
REMARK  205  A    between atoms: _501  and  _502
REMARK  206  A    between atoms: _502  and  _503
REMARK  207  A    between atoms: _506  and  _508
REMARK  208  A    between atoms: _508  and  _509
REMARK  209  A    between atoms: _511  and  _513
REMARK  210  A    between atoms: _513  and  _514
REMARK  211  A    between atoms: _513  and  _516
REMARK  212  A    between atoms: _516  and  _517
REMARK  213  A    between atoms: _517  and  _518
REMARK  214  A    between atoms: _518  and  _519
REMARK  215  A    between atoms: _519  and  _520
REMARK  216  A    between atoms: _524  and  _526
REMARK  217  A    between atoms: _526  and  _527
REMARK  218  A    between atoms: _526  and  _529
REMARK  219  A    between atoms: _529  and  _530
REMARK  220  A    between atoms: _530  and  _531
REMARK  221  A    between atoms: _537  and  _538
REMARK  222  A    between atoms: _543  and  _545
REMARK  223  A    between atoms: _545  and  _546
REMARK  224  A    between atoms: _545  and  _548
REMARK  225  A    between atoms: _548  and  _549
REMARK  226  A    between atoms: _549  and  _550
REMARK                            x       y       z     vdW  Elec       q    Type
REMARK                         _______ _______ _______ _____ _____    ______ ____
ROOT
ATOM      1  O   HOH     1       5.907 -13.068  16.786  0.00  0.00    +0.000 OA
ENDROOT
TORSDOF 0
REMARK  Name = ../refined-set-2016/3umo/3umo_pocket.pdb
REMARK  226 active torsions:
REMARK  status: ('A' for Active; 'I' for Inactive)
REMARK    1  A    between atoms: _1  and  _3
REMARK    2  A    between atoms: _3  and  _4
REMARK    3  A    between atoms: _6  and  _8
REMARK    4  A    between atoms: _8  and  _9
REMARK    5  A    between atoms: _8  and  _11
REMARK    6  A    between atoms: _11  and  _12
REMARK    7  A    between atoms: _17  and  _19
REMARK    8  A    between atoms: _19  and  _20
REMARK    9  A    between atoms: _19  and  _22
REMARK   10  A    between atoms: _22  and  _23
REMARK   11  A    between atoms: _23  and  _24
REMARK   12  A    between atoms: _24  and  _25
REMARK   13  A    between atoms: _34  and  _36
REMARK   14  A    between atoms: _36  and  _37
REMARK   15  A    between atoms: _36  and  _39
REMARK   16  A    between atoms: _39  and  _40
REMARK   17  A    between atoms: _42  and  _44
REMARK   18  A    between atoms: _44  and  _45
REMARK   19  A    between atoms: _44  and  _47
REMARK   20  A    between atoms: _47  and  _48
REMARK   21  A    between atoms: _51  and  _53
REMARK   22  A    between atoms: _53  and  _54
REMARK   23  A    between atoms: _53  and  _56
REMARK   24  A    between atoms: _56  and  _57
REMARK   25  A    between atoms: _59  and  _61
REMARK   26  A    between atoms: _61  and  _62
REMARK   27  A    between atoms: _61  and  _64
REMARK   28  A    between atoms: _64  and  _65
REMARK   29  A    between atoms: _65  and  _66
REMARK   30  A    between atoms: _66  and  _67
REMARK   31  A    between atoms: _67  and  _68
REMARK   32  A    between atoms: _73  and  _74
REMARK   33  A    between atoms: _79  and  _81
REMARK   34  A    between atoms: _81  and  _82
REMARK   35  A    between atoms: _81  and  _84
REMARK   36  A    between atoms: _84  and  _85
REMARK   37  A    between atoms: _90  and  _92
REMARK   38  A    between atoms: _92  and  _93
REMARK   39  A    between atoms: _92  and  _95
REMARK   40  A    between atoms: _95  and  _96
REMARK   41  A    between atoms: _96  and  _97
REMARK   42  A    between atoms: _102  and  _104
REMARK   43  A    between atoms: _104  and  _105
REMARK   44  A    between atoms: _104  and  _107
REMARK   45  A    between atoms: _107  and  _108
REMARK   46  A    between atoms: _108  and  _109
REMARK   47  A    between atoms: _109  and  _110
REMARK   48  A    between atoms: _110  and  _111
REMARK   49  A    between atoms: _115  and  _117
REMARK   50  A    between atoms: _117  and  _118
REMARK   51  A    between atoms: _117  and  _120
REMARK   52  A    between atoms: _120  and  _121
REMARK   53  A    between atoms: _121  and  _122
REMARK   54  A    between atoms: _125  and  _127
REMARK   55  A    between atoms: _127  and  _128
REMARK   56  A    between atoms: _127  and  _130
REMARK   57  A    between atoms: _133  and  _135
REMARK   58  A    between atoms: _135  and  _136
REMARK   59  A    between atoms: _135  and  _138
REMARK   60  A    between atoms: _141  and  _143
REMARK   61  A    between atoms: _143  and  _144
REMARK   62  A    between atoms: _143  and  _146
REMARK   63  A    between atoms: _146  and  _147
REMARK   64  A    between atoms: _149  and  _151
REMARK   65  A    between atoms: _151  and  _152
REMARK   66  A    between atoms: _151  and  _154
REMARK   67  A    between atoms: _154  and  _155
REMARK   68  A    between atoms: _158  and  _160
REMARK   69  A    between atoms: _160  and  _161
REMARK   70  A    between atoms: _164  and  _165
REMARK   71  A    between atoms: _170  and  _172
REMARK   72  A    between atoms: _172  and  _173
REMARK   73  A    between atoms: _172  and  _175
REMARK   74  A    between atoms: _175  and  _176
REMARK   75  A    between atoms: _176  and  _177
REMARK   76  A    between atoms: _182  and  _184
REMARK   77  A    between atoms: _184  and  _185
REMARK   78  A    between atoms: _187  and  _189
REMARK   79  A    between atoms: _189  and  _190
REMARK   80  A    between atoms: _193  and  _195
REMARK   81  A    between atoms: _195  and  _196
REMARK   82  A    between atoms: _195  and  _198
REMARK   83  A    between atoms: _198  and  _199
REMARK   84  A    between atoms: _202  and  _204
REMARK   85  A    between atoms: _204  and  _205
REMARK   86  A    between atoms: _204  and  _207
REMARK   87  A    between atoms: _210  and  _212
REMARK   88  A    between atoms: _212  and  _213
REMARK   89  A    between atoms: _212  and  _215
REMARK   90  A    between atoms: _219  and  _220
REMARK   91  A    between atoms: _226  and  _227
REMARK   92  A    between atoms: _233  and  _234
REMARK   93  A    between atoms: _239  and  _241
REMARK   94  A    between atoms: _241  and  _242
REMARK   95  A    between atoms: _241  and  _244
REMARK   96  A    between atoms: _247  and  _249
REMARK   97  A    between atoms: _249  and  _250
REMARK   98  A    between atoms: _249  and  _252
REMARK   99  A    between atoms: _252  and  _253
REMARK  100  A    between atoms: _253  and  _254
REMARK  101  A    between atoms: _254  and  _255
REMARK  102  A    between atoms: _255  and  _256
REMARK  103  A    between atoms: _260  and  _262
REMARK  104  A    between atoms: _262  and  _263
REMARK  105  A    between atoms: _262  and  _265
REMARK  106  A    between atoms: _265  and  _266
REMARK  107  A    between atoms: _268  and  _270
REMARK  108  A    between atoms: _270  and  _271
REMARK  109  A    between atoms: _270  and  _273
REMARK  110  A    between atoms: _273  and  _274
REMARK  111  A    between atoms: _274  and  _275
REMARK  112  A    between atoms: _280  and  _282
REMARK  113  A    between atoms: _282  and  _283
REMARK  114  A    between atoms: _282  and  _285
REMARK  115  A    between atoms: _285  and  _286
REMARK  116  A    between atoms: _288  and  _290
REMARK  117  A    between atoms: _290  and  _291
REMARK  118  A    between atoms: _290  and  _293
REMARK  119  A    between atoms: _293  and  _294
REMARK  120  A    between atoms: _297  and  _299
REMARK  121  A    between atoms: _299  and  _300
REMARK  122  A    between atoms: _299  and  _302
REMARK  123  A    between atoms: _305  and  _307
REMARK  124  A    between atoms: _307  and  _308
REMARK  125  A    between atoms: _310  and  _312
REMARK  126  A    between atoms: _312  and  _313
REMARK  127  A    between atoms: _316  and  _318
REMARK  128  A    between atoms: _318  and  _319
REMARK  129  A    between atoms: _321  and  _323
REMARK  130  A    between atoms: _323  and  _324
REMARK  131  A    between atoms: _323  and  _326
REMARK  132  A    between atoms: _326  and  _327
REMARK  133  A    between atoms: _330  and  _332
REMARK  134  A    between atoms: _332  and  _333
REMARK  135  A    between atoms: _332  and  _335
REMARK  136  A    between atoms: _335  and  _336
REMARK  137  A    between atoms: _338  and  _340
REMARK  138  A    between atoms: _340  and  _341
REMARK  139  A    between atoms: _340  and  _343
REMARK  140  A    between atoms: _343  and  _344
REMARK  141  A    between atoms: _344  and  _345
REMARK  142  A    between atoms: _347  and  _349
REMARK  143  A    between atoms: _349  and  _350
REMARK  144  A    between atoms: _349  and  _352
REMARK  145  A    between atoms: _355  and  _357
REMARK  146  A    between atoms: _357  and  _358
REMARK  147  A    between atoms: _357  and  _360
REMARK  148  A    between atoms: _360  and  _361
REMARK  149  A    between atoms: _361  and  _362
REMARK  150  A    between atoms: _364  and  _366
REMARK  151  A    between atoms: _366  and  _367
REMARK  152  A    between atoms: _366  and  _369
REMARK  153  A    between atoms: _372  and  _374
REMARK  154  A    between atoms: _374  and  _375
REMARK  155  A    between atoms: _374  and  _377
REMARK  156  A    between atoms: _377  and  _378
REMARK  157  A    between atoms: _378  and  _379
REMARK  158  A    between atoms: _379  and  _380
REMARK  159  A    between atoms: _389  and  _391
REMARK  160  A    between atoms: _391  and  _392
REMARK  161  A    between atoms: _391  and  _394
REMARK  162  A    between atoms: _394  and  _395
REMARK  163  A    between atoms: _401  and  _403
REMARK  164  A    between atoms: _403  and  _404
REMARK  165  A    between atoms: _406  and  _408
REMARK  166  A    between atoms: _408  and  _409
REMARK  167  A    between atoms: _408  and  _411
REMARK  168  A    between atoms: _414  and  _416
REMARK  169  A    between atoms: _416  and  _417
REMARK  170  A    between atoms: _420  and  _422
REMARK  171  A    between atoms: _422  and  _423
REMARK  172  A    between atoms: _426  and  _428
REMARK  173  A    between atoms: _428  and  _429
REMARK  174  A    between atoms: _431  and  _433
REMARK  175  A    between atoms: _433  and  _434
REMARK  176  A    between atoms: _433  and  _436
REMARK  177  A    between atoms: _436  and  _437
REMARK  178  A    between atoms: _439  and  _441
REMARK  179  A    between atoms: _441  and  _442
REMARK  180  A    between atoms: _445  and  _447
REMARK  181  A    between atoms: _447  and  _448
REMARK  182  A    between atoms: _451  and  _453
REMARK  183  A    between atoms: _453  and  _454
REMARK  184  A    between atoms: _453  and  _456
REMARK  185  A    between atoms: _456  and  _457
REMARK  186  A    between atoms: _460  and  _462
REMARK  187  A    between atoms: _462  and  _463
REMARK  188  A    between atoms: _462  and  _465
REMARK  189  A    between atoms: _465  and  _466
REMARK  190  A    between atoms: _469  and  _471
REMARK  191  A    between atoms: _471  and  _472
REMARK  192  A    between atoms: _471  and  _474
REMARK  193  A    between atoms: _474  and  _475
REMARK  194  A    between atoms: _478  and  _480
REMARK  195  A    between atoms: _480  and  _481
REMARK  196  A    between atoms: _480  and  _483
REMARK  197  A    between atoms: _483  and  _484
REMARK  198  A    between atoms: _487  and  _489
REMARK  199  A    between atoms: _489  and  _490
REMARK  200  A    between atoms: _489  and  _492
REMARK  201  A    between atoms: _492  and  _493
REMARK  202  A    between atoms: _496  and  _498
REMARK  203  A    between atoms: _498  and  _499
REMARK  204  A    between atoms: _498  and  _501
REMARK  205  A    between atoms: _501  and  _502
REMARK  206  A    between atoms: _502  and  _503
REMARK  207  A    between atoms: _506  and  _508
REMARK  208  A    between atoms: _508  and  _509
REMARK  209  A    between atoms: _511  and  _513
REMARK  210  A    between atoms: _513  and  _514
REMARK  211  A    between atoms: _513  and  _516
REMARK  212  A    between atoms: _516  and  _517
REMARK  213  A    between atoms: _517  and  _518
REMARK  214  A    between atoms: _518  and  _519
REMARK  215  A    between atoms: _519  and  _520
REMARK  216  A    between atoms: _524  and  _526
REMARK  217  A    between atoms: _526  and  _527
REMARK  218  A    between atoms: _526  and  _529
REMARK  219  A    between atoms: _529  and  _530
REMARK  220  A    between atoms: _530  and  _531
REMARK  221  A    between atoms: _537  and  _538
REMARK  222  A    between atoms: _543  and  _545
REMARK  223  A    between atoms: _545  and  _546
REMARK  224  A    between atoms: _545  and  _548
REMARK  225  A    between atoms: _548  and  _549
REMARK  226  A    between atoms: _549  and  _550
REMARK                            x       y       z     vdW  Elec       q    Type
REMARK                         _______ _______ _______ _____ _____    ______ ____
ROOT
ATOM      1  O   HOH     1       2.625 -22.236   4.043  0.00  0.00    +0.000 OA
ENDROOT
TORSDOF 0
REMARK  Name = ../refined-set-2016/3umo/3umo_pocket.pdb
REMARK  226 active torsions:
REMARK  status: ('A' for Active; 'I' for Inactive)
REMARK    1  A    between atoms: _1  and  _3
REMARK    2  A    between atoms: _3  and  _4
REMARK    3  A    between atoms: _6  and  _8
REMARK    4  A    between atoms: _8  and  _9
REMARK    5  A    between atoms: _8  and  _11
REMARK    6  A    between atoms: _11  and  _12
REMARK    7  A    between atoms: _17  and  _19
REMARK    8  A    between atoms: _19  and  _20
REMARK    9  A    between atoms: _19  and  _22
REMARK   10  A    between atoms: _22  and  _23
REMARK   11  A    between atoms: _23  and  _24
REMARK   12  A    between atoms: _24  and  _25
REMARK   13  A    between atoms: _34  and  _36
REMARK   14  A    between atoms: _36  and  _37
REMARK   15  A    between atoms: _36  and  _39
REMARK   16  A    between atoms: _39  and  _40
REMARK   17  A    between atoms: _42  and  _44
REMARK   18  A    between atoms: _44  and  _45
REMARK   19  A    between atoms: _44  and  _47
REMARK   20  A    between atoms: _47  and  _48
REMARK   21  A    between atoms: _51  and  _53
REMARK   22  A    between atoms: _53  and  _54
REMARK   23  A    between atoms: _53  and  _56
REMARK   24  A    between atoms: _56  and  _57
REMARK   25  A    between atoms: _59  and  _61
REMARK   26  A    between atoms: _61  and  _62
REMARK   27  A    between atoms: _61  and  _64
REMARK   28  A    between atoms: _64  and  _65
REMARK   29  A    between atoms: _65  and  _66
REMARK   30  A    between atoms: _66  and  _67
REMARK   31  A    between atoms: _67  and  _68
REMARK   32  A    between atoms: _73  and  _74
REMARK   33  A    between atoms: _79  and  _81
REMARK   34  A    between atoms: _81  and  _82
REMARK   35  A    between atoms: _81  and  _84
REMARK   36  A    between atoms: _84  and  _85
REMARK   37  A    between atoms: _90  and  _92
REMARK   38  A    between atoms: _92  and  _93
REMARK   39  A    between atoms: _92  and  _95
REMARK   40  A    between atoms: _95  and  _96
REMARK   41  A    between atoms: _96  and  _97
REMARK   42  A    between atoms: _102  and  _104
REMARK   43  A    between atoms: _104  and  _105
REMARK   44  A    between atoms: _104  and  _107
REMARK   45  A    between atoms: _107  and  _108
REMARK   46  A    between atoms: _108  and  _109
REMARK   47  A    between atoms: _109  and  _110
REMARK   48  A    between atoms: _110  and  _111
REMARK   49  A    between atoms: _115  and  _117
REMARK   50  A    between atoms: _117  and  _118
REMARK   51  A    between atoms: _117  and  _120
REMARK   52  A    between atoms: _120  and  _121
REMARK   53  A    between atoms: _121  and  _122
REMARK   54  A    between atoms: _125  and  _127
REMARK   55  A    between atoms: _127  and  _128
REMARK   56  A    between atoms: _127  and  _130
REMARK   57  A    between atoms: _133  and  _135
REMARK   58  A    between atoms: _135  and  _136
REMARK   59  A    between atoms: _135  and  _138
REMARK   60  A    between atoms: _141  and  _143
REMARK   61  A    between atoms: _143  and  _144
REMARK   62  A    between atoms: _143  and  _146
REMARK   63  A    between atoms: _146  and  _147
REMARK   64  A    between atoms: _149  and  _151
REMARK   65  A    between atoms: _151  and  _152
REMARK   66  A    between atoms: _151  and  _154
REMARK   67  A    between atoms: _154  and  _155
REMARK   68  A    between atoms: _158  and  _160
REMARK   69  A    between atoms: _160  and  _161
REMARK   70  A    between atoms: _164  and  _165
REMARK   71  A    between atoms: _170  and  _172
REMARK   72  A    between atoms: _172  and  _173
REMARK   73  A    between atoms: _172  and  _175
REMARK   74  A    between atoms: _175  and  _176
REMARK   75  A    between atoms: _176  and  _177
REMARK   76  A    between atoms: _182  and  _184
REMARK   77  A    between atoms: _184  and  _185
REMARK   78  A    between atoms: _187  and  _189
REMARK   79  A    between atoms: _189  and  _190
REMARK   80  A    between atoms: _193  and  _195
REMARK   81  A    between atoms: _195  and  _196
REMARK   82  A    between atoms: _195  and  _198
REMARK   83  A    between atoms: _198  and  _199
REMARK   84  A    between atoms: _202  and  _204
REMARK   85  A    between atoms: _204  and  _205
REMARK   86  A    between atoms: _204  and  _207
REMARK   87  A    between atoms: _210  and  _212
REMARK   88  A    between atoms: _212  and  _213
REMARK   89  A    between atoms: _212  and  _215
REMARK   90  A    between atoms: _219  and  _220
REMARK   91  A    between atoms: _226  and  _227
REMARK   92  A    between atoms: _233  and  _234
REMARK   93  A    between atoms: _239  and  _241
REMARK   94  A    between atoms: _241  and  _242
REMARK   95  A    between atoms: _241  and  _244
REMARK   96  A    between atoms: _247  and  _249
REMARK   97  A    between atoms: _249  and  _250
REMARK   98  A    between atoms: _249  and  _252
REMARK   99  A    between atoms: _252  and  _253
REMARK  100  A    between atoms: _253  and  _254
REMARK  101  A    between atoms: _254  and  _255
REMARK  102  A    between atoms: _255  and  _256
REMARK  103  A    between atoms: _260  and  _262
REMARK  104  A    between atoms: _262  and  _263
REMARK  105  A    between atoms: _262  and  _265
REMARK  106  A    between atoms: _265  and  _266
REMARK  107  A    between atoms: _268  and  _270
REMARK  108  A    between atoms: _270  and  _271
REMARK  109  A    between atoms: _270  and  _273
REMARK  110  A    between atoms: _273  and  _274
REMARK  111  A    between atoms: _274  and  _275
REMARK  112  A    between atoms: _280  and  _282
REMARK  113  A    between atoms: _282  and  _283
REMARK  114  A    between atoms: _282  and  _285
REMARK  115  A    between atoms: _285  and  _286
REMARK  116  A    between atoms: _288  and  _290
REMARK  117  A    between atoms: _290  and  _291
REMARK  118  A    between atoms: _290  and  _293
REMARK  119  A    between atoms: _293  and  _294
REMARK  120  A    between atoms: _297  and  _299
REMARK  121  A    between atoms: _299  and  _300
REMARK  122  A    between atoms: _299  and  _302
REMARK  123  A    between atoms: _305  and  _307
REMARK  124  A    between atoms: _307  and  _308
REMARK  125  A    between atoms: _310  and  _312
REMARK  126  A    between atoms: _312  and  _313
REMARK  127  A    between atoms: _316  and  _318
REMARK  128  A    between atoms: _318  and  _319
REMARK  129  A    between atoms: _321  and  _323
REMARK  130  A    between atoms: _323  and  _324
REMARK  131  A    between atoms: _323  and  _326
REMARK  132  A    between atoms: _326  and  _327
REMARK  133  A    between atoms: _330  and  _332
REMARK  134  A    between atoms: _332  and  _333
REMARK  135  A    between atoms: _332  and  _335
REMARK  136  A    between atoms: _335  and  _336
REMARK  137  A    between atoms: _338  and  _340
REMARK  138  A    between atoms: _340  and  _341
REMARK  139  A    between atoms: _340  and  _343
REMARK  140  A    between atoms: _343  and  _344
REMARK  141  A    between atoms: _344  and  _345
REMARK  142  A    between atoms: _347  and  _349
REMARK  143  A    between atoms: _349  and  _350
REMARK  144  A    between atoms: _349  and  _352
REMARK  145  A    between atoms: _355  and  _357
REMARK  146  A    between atoms: _357  and  _358
REMARK  147  A    between atoms: _357  and  _360
REMARK  148  A    between atoms: _360  and  _361
REMARK  149  A    between atoms: _361  and  _362
REMARK  150  A    between atoms: _364  and  _366
REMARK  151  A    between atoms: _366  and  _367
REMARK  152  A    between atoms: _366  and  _369
REMARK  153  A    between atoms: _372  and  _374
REMARK  154  A    between atoms: _374  and  _375
REMARK  155  A    between atoms: _374  and  _377
REMARK  156  A    between atoms: _377  and  _378
REMARK  157  A    between atoms: _378  and  _379
REMARK  158  A    between atoms: _379  and  _380
REMARK  159  A    between atoms: _389  and  _391
REMARK  160  A    between atoms: _391  and  _392
REMARK  161  A    between atoms: _391  and  _394
REMARK  162  A    between atoms: _394  and  _395
REMARK  163  A    between atoms: _401  and  _403
REMARK  164  A    between atoms: _403  and  _404
REMARK  165  A    between atoms: _406  and  _408
REMARK  166  A    between atoms: _408  and  _409
REMARK  167  A    between atoms: _408  and  _411
REMARK  168  A    between atoms: _414  and  _416
REMARK  169  A    between atoms: _416  and  _417
REMARK  170  A    between atoms: _420  and  _422
REMARK  171  A    between atoms: _422  and  _423
REMARK  172  A    between atoms: _426  and  _428
REMARK  173  A    between atoms: _428  and  _429
REMARK  174  A    between atoms: _431  and  _433
REMARK  175  A    between atoms: _433  and  _434
REMARK  176  A    between atoms: _433  and  _436
REMARK  177  A    between atoms: _436  and  _437
REMARK  178  A    between atoms: _439  and  _441
REMARK  179  A    between atoms: _441  and  _442
REMARK  180  A    between atoms: _445  and  _447
REMARK  181  A    between atoms: _447  and  _448
REMARK  182  A    between atoms: _451  and  _453
REMARK  183  A    between atoms: _453  and  _454
REMARK  184  A    between atoms: _453  and  _456
REMARK  185  A    between atoms: _456  and  _457
REMARK  186  A    between atoms: _460  and  _462
REMARK  187  A    between atoms: _462  and  _463
REMARK  188  A    between atoms: _462  and  _465
REMARK  189  A    between atoms: _465  and  _466
REMARK  190  A    between atoms: _469  and  _471
REMARK  191  A    between atoms: _471  and  _472
REMARK  192  A    between atoms: _471  and  _474
REMARK  193  A    between atoms: _474  and  _475
REMARK  194  A    between atoms: _478  and  _480
REMARK  195  A    between atoms: _480  and  _481
REMARK  196  A    between atoms: _480  and  _483
REMARK  197  A    between atoms: _483  and  _484
REMARK  198  A    between atoms: _487  and  _489
REMARK  199  A    between atoms: _489  and  _490
REMARK  200  A    between atoms: _489  and  _492
REMARK  201  A    between atoms: _492  and  _493
REMARK  202  A    between atoms: _496  and  _498
REMARK  203  A    between atoms: _498  and  _499
REMARK  204  A    between atoms: _498  and  _501
REMARK  205  A    between atoms: _501  and  _502
REMARK  206  A    between atoms: _502  and  _503
REMARK  207  A    between atoms: _506  and  _508
REMARK  208  A    between atoms: _508  and  _509
REMARK  209  A    between atoms: _511  and  _513
REMARK  210  A    between atoms: _513  and  _514
REMARK  211  A    between atoms: _513  and  _516
REMARK  212  A    between atoms: _516  and  _517
REMARK  213  A    between atoms: _517  and  _518
REMARK  214  A    between atoms: _518  and  _519
REMARK  215  A    between atoms: _519  and  _520
REMARK  216  A    between atoms: _524  and  _526
REMARK  217  A    between atoms: _526  and  _527
REMARK  218  A    between atoms: _526  and  _529
REMARK  219  A    between atoms: _529  and  _530
REMARK  220  A    between atoms: _530  and  _531
REMARK  221  A    between atoms: _537  and  _538
REMARK  222  A    between atoms: _543  and  _545
REMARK  223  A    between atoms: _545  and  _546
REMARK  224  A    between atoms: _545  and  _548
REMARK  225  A    between atoms: _548  and  _549
REMARK  226  A    between atoms: _549  and  _550
REMARK                            x       y       z     vdW  Elec       q    Type
REMARK                         _______ _______ _______ _____ _____    ______ ____
ROOT
ATOM      1  O   HOH     1       9.493 -17.956  23.546  0.00  0.00    +0.000 OA
ENDROOT
TORSDOF 0
REMARK  Name = ../refined-set-2016/3umo/3umo_pocket.pdb
REMARK  226 active torsions:
REMARK  status: ('A' for Active; 'I' for Inactive)
REMARK    1  A    between atoms: _1  and  _3
REMARK    2  A    between atoms: _3  and  _4
REMARK    3  A    between atoms: _6  and  _8
REMARK    4  A    between atoms: _8  and  _9
REMARK    5  A    between atoms: _8  and  _11
REMARK    6  A    between atoms: _11  and  _12
REMARK    7  A    between atoms: _17  and  _19
REMARK    8  A    between atoms: _19  and  _20
REMARK    9  A    between atoms: _19  and  _22
REMARK   10  A    between atoms: _22  and  _23
REMARK   11  A    between atoms: _23  and  _24
REMARK   12  A    between atoms: _24  and  _25
REMARK   13  A    between atoms: _34  and  _36
REMARK   14  A    between atoms: _36  and  _37
REMARK   15  A    between atoms: _36  and  _39
REMARK   16  A    between atoms: _39  and  _40
REMARK   17  A    between atoms: _42  and  _44
REMARK   18  A    between atoms: _44  and  _45
REMARK   19  A    between atoms: _44  and  _47
REMARK   20  A    between atoms: _47  and  _48
REMARK   21  A    between atoms: _51  and  _53
REMARK   22  A    between atoms: _53  and  _54
REMARK   23  A    between atoms: _53  and  _56
REMARK   24  A    between atoms: _56  and  _57
REMARK   25  A    between atoms: _59  and  _61
REMARK   26  A    between atoms: _61  and  _62
REMARK   27  A    between atoms: _61  and  _64
REMARK   28  A    between atoms: _64  and  _65
REMARK   29  A    between atoms: _65  and  _66
REMARK   30  A    between atoms: _66  and  _67
REMARK   31  A    between atoms: _67  and  _68
REMARK   32  A    between atoms: _73  and  _74
REMARK   33  A    between atoms: _79  and  _81
REMARK   34  A    between atoms: _81  and  _82
REMARK   35  A    between atoms: _81  and  _84
REMARK   36  A    between atoms: _84  and  _85
REMARK   37  A    between atoms: _90  and  _92
REMARK   38  A    between atoms: _92  and  _93
REMARK   39  A    between atoms: _92  and  _95
REMARK   40  A    between atoms: _95  and  _96
REMARK   41  A    between atoms: _96  and  _97
REMARK   42  A    between atoms: _102  and  _104
REMARK   43  A    between atoms: _104  and  _105
REMARK   44  A    between atoms: _104  and  _107
REMARK   45  A    between atoms: _107  and  _108
REMARK   46  A    between atoms: _108  and  _109
REMARK   47  A    between atoms: _109  and  _110
REMARK   48  A    between atoms: _110  and  _111
REMARK   49  A    between atoms: _115  and  _117
REMARK   50  A    between atoms: _117  and  _118
REMARK   51  A    between atoms: _117  and  _120
REMARK   52  A    between atoms: _120  and  _121
REMARK   53  A    between atoms: _121  and  _122
REMARK   54  A    between atoms: _125  and  _127
REMARK   55  A    between atoms: _127  and  _128
REMARK   56  A    between atoms: _127  and  _130
REMARK   57  A    between atoms: _133  and  _135
REMARK   58  A    between atoms: _135  and  _136
REMARK   59  A    between atoms: _135  and  _138
REMARK   60  A    between atoms: _141  and  _143
REMARK   61  A    between atoms: _143  and  _144
REMARK   62  A    between atoms: _143  and  _146
REMARK   63  A    between atoms: _146  and  _147
REMARK   64  A    between atoms: _149  and  _151
REMARK   65  A    between atoms: _151  and  _152
REMARK   66  A    between atoms: _151  and  _154
REMARK   67  A    between atoms: _154  and  _155
REMARK   68  A    between atoms: _158  and  _160
REMARK   69  A    between atoms: _160  and  _161
REMARK   70  A    between atoms: _164  and  _165
REMARK   71  A    between atoms: _170  and  _172
REMARK   72  A    between atoms: _172  and  _173
REMARK   73  A    between atoms: _172  and  _175
REMARK   74  A    between atoms: _175  and  _176
REMARK   75  A    between atoms: _176  and  _177
REMARK   76  A    between atoms: _182  and  _184
REMARK   77  A    between atoms: _184  and  _185
REMARK   78  A    between atoms: _187  and  _189
REMARK   79  A    between atoms: _189  and  _190
REMARK   80  A    between atoms: _193  and  _195
REMARK   81  A    between atoms: _195  and  _196
REMARK   82  A    between atoms: _195  and  _198
REMARK   83  A    between atoms: _198  and  _199
REMARK   84  A    between atoms: _202  and  _204
REMARK   85  A    between atoms: _204  and  _205
REMARK   86  A    between atoms: _204  and  _207
REMARK   87  A    between atoms: _210  and  _212
REMARK   88  A    between atoms: _212  and  _213
REMARK   89  A    between atoms: _212  and  _215
REMARK   90  A    between atoms: _219  and  _220
REMARK   91  A    between atoms: _226  and  _227
REMARK   92  A    between atoms: _233  and  _234
REMARK   93  A    between atoms: _239  and  _241
REMARK   94  A    between atoms: _241  and  _242
REMARK   95  A    between atoms: _241  and  _244
REMARK   96  A    between atoms: _247  and  _249
REMARK   97  A    between atoms: _249  and  _250
REMARK   98  A    between atoms: _249  and  _252
REMARK   99  A    between atoms: _252  and  _253
REMARK  100  A    between atoms: _253  and  _254
REMARK  101  A    between atoms: _254  and  _255
REMARK  102  A    between atoms: _255  and  _256
REMARK  103  A    between atoms: _260  and  _262
REMARK  104  A    between atoms: _262  and  _263
REMARK  105  A    between atoms: _262  and  _265
REMARK  106  A    between atoms: _265  and  _266
REMARK  107  A    between atoms: _268  and  _270
REMARK  108  A    between atoms: _270  and  _271
REMARK  109  A    between atoms: _270  and  _273
REMARK  110  A    between atoms: _273  and  _274
REMARK  111  A    between atoms: _274  and  _275
REMARK  112  A    between atoms: _280  and  _282
REMARK  113  A    between atoms: _282  and  _283
REMARK  114  A    between atoms: _282  and  _285
REMARK  115  A    between atoms: _285  and  _286
REMARK  116  A    between atoms: _288  and  _290
REMARK  117  A    between atoms: _290  and  _291
REMARK  118  A    between atoms: _290  and  _293
REMARK  119  A    between atoms: _293  and  _294
REMARK  120  A    between atoms: _297  and  _299
REMARK  121  A    between atoms: _299  and  _300
REMARK  122  A    between atoms: _299  and  _302
REMARK  123  A    between atoms: _305  and  _307
REMARK  124  A    between atoms: _307  and  _308
REMARK  125  A    between atoms: _310  and  _312
REMARK  126  A    between atoms: _312  and  _313
REMARK  127  A    between atoms: _316  and  _318
REMARK  128  A    between atoms: _318  and  _319
REMARK  129  A    between atoms: _321  and  _323
REMARK  130  A    between atoms: _323  and  _324
REMARK  131  A    between atoms: _323  and  _326
REMARK  132  A    between atoms: _326  and  _327
REMARK  133  A    between atoms: _330  and  _332
REMARK  134  A    between atoms: _332  and  _333
REMARK  135  A    between atoms: _332  and  _335
REMARK  136  A    between atoms: _335  and  _336
REMARK  137  A    between atoms: _338  and  _340
REMARK  138  A    between atoms: _340  and  _341
REMARK  139  A    between atoms: _340  and  _343
REMARK  140  A    between atoms: _343  and  _344
REMARK  141  A    between atoms: _344  and  _345
REMARK  142  A    between atoms: _347  and  _349
REMARK  143  A    between atoms: _349  and  _350
REMARK  144  A    between atoms: _349  and  _352
REMARK  145  A    between atoms: _355  and  _357
REMARK  146  A    between atoms: _357  and  _358
REMARK  147  A    between atoms: _357  and  _360
REMARK  148  A    between atoms: _360  and  _361
REMARK  149  A    between atoms: _361  and  _362
REMARK  150  A    between atoms: _364  and  _366
REMARK  151  A    between atoms: _366  and  _367
REMARK  152  A    between atoms: _366  and  _369
REMARK  153  A    between atoms: _372  and  _374
REMARK  154  A    between atoms: _374  and  _375
REMARK  155  A    between atoms: _374  and  _377
REMARK  156  A    between atoms: _377  and  _378
REMARK  157  A    between atoms: _378  and  _379
REMARK  158  A    between atoms: _379  and  _380
REMARK  159  A    between atoms: _389  and  _391
REMARK  160  A    between atoms: _391  and  _392
REMARK  161  A    between atoms: _391  and  _394
REMARK  162  A    between atoms: _394  and  _395
REMARK  163  A    between atoms: _401  and  _403
REMARK  164  A    between atoms: _403  and  _404
REMARK  165  A    between atoms: _406  and  _408
REMARK  166  A    between atoms: _408  and  _409
REMARK  167  A    between atoms: _408  and  _411
REMARK  168  A    between atoms: _414  and  _416
REMARK  169  A    between atoms: _416  and  _417
REMARK  170  A    between atoms: _420  and  _422
REMARK  171  A    between atoms: _422  and  _423
REMARK  172  A    between atoms: _426  and  _428
REMARK  173  A    between atoms: _428  and  _429
REMARK  174  A    between atoms: _431  and  _433
REMARK  175  A    between atoms: _433  and  _434
REMARK  176  A    between atoms: _433  and  _436
REMARK  177  A    between atoms: _436  and  _437
REMARK  178  A    between atoms: _439  and  _441
REMARK  179  A    between atoms: _441  and  _442
REMARK  180  A    between atoms: _445  and  _447
REMARK  181  A    between atoms: _447  and  _448
REMARK  182  A    between atoms: _451  and  _453
REMARK  183  A    between atoms: _453  and  _454
REMARK  184  A    between atoms: _453  and  _456
REMARK  185  A    between atoms: _456  and  _457
REMARK  186  A    between atoms: _460  and  _462
REMARK  187  A    between atoms: _462  and  _463
REMARK  188  A    between atoms: _462  and  _465
REMARK  189  A    between atoms: _465  and  _466
REMARK  190  A    between atoms: _469  and  _471
REMARK  191  A    between atoms: _471  and  _472
REMARK  192  A    between atoms: _471  and  _474
REMARK  193  A    between atoms: _474  and  _475
REMARK  194  A    between atoms: _478  and  _480
REMARK  195  A    between atoms: _480  and  _481
REMARK  196  A    between atoms: _480  and  _483
REMARK  197  A    between atoms: _483  and  _484
REMARK  198  A    between atoms: _487  and  _489
REMARK  199  A    between atoms: _489  and  _490
REMARK  200  A    between atoms: _489  and  _492
REMARK  201  A    between atoms: _492  and  _493
REMARK  202  A    between atoms: _496  and  _498
REMARK  203  A    between atoms: _498  and  _499
REMARK  204  A    between atoms: _498  and  _501
REMARK  205  A    between atoms: _501  and  _502
REMARK  206  A    between atoms: _502  and  _503
REMARK  207  A    between atoms: _506  and  _508
REMARK  208  A    between atoms: _508  and  _509
REMARK  209  A    between atoms: _511  and  _513
REMARK  210  A    between atoms: _513  and  _514
REMARK  211  A    between atoms: _513  and  _516
REMARK  212  A    between atoms: _516  and  _517
REMARK  213  A    between atoms: _517  and  _518
REMARK  214  A    between atoms: _518  and  _519
REMARK  215  A    between atoms: _519  and  _520
REMARK  216  A    between atoms: _524  and  _526
REMARK  217  A    between atoms: _526  and  _527
REMARK  218  A    between atoms: _526  and  _529
REMARK  219  A    between atoms: _529  and  _530
REMARK  220  A    between atoms: _530  and  _531
REMARK  221  A    between atoms: _537  and  _538
REMARK  222  A    between atoms: _543  and  _545
REMARK  223  A    between atoms: _545  and  _546
REMARK  224  A    between atoms: _545  and  _548
REMARK  225  A    between atoms: _548  and  _549
REMARK  226  A    between atoms: _549  and  _550
REMARK                            x       y       z     vdW  Elec       q    Type
REMARK                         _______ _______ _______ _____ _____    ______ ____
ROOT
ATOM      1  O   HOH     1      12.618 -20.718  10.941  0.00  0.00    +0.000 OA
ENDROOT
TORSDOF 0
REMARK  Name = ../refined-set-2016/3umo/3umo_pocket.pdb
REMARK  226 active torsions:
REMARK  status: ('A' for Active; 'I' for Inactive)
REMARK    1  A    between atoms: _1  and  _3
REMARK    2  A    between atoms: _3  and  _4
REMARK    3  A    between atoms: _6  and  _8
REMARK    4  A    between atoms: _8  and  _9
REMARK    5  A    between atoms: _8  and  _11
REMARK    6  A    between atoms: _11  and  _12
REMARK    7  A    between atoms: _17  and  _19
REMARK    8  A    between atoms: _19  and  _20
REMARK    9  A    between atoms: _19  and  _22
REMARK   10  A    between atoms: _22  and  _23
REMARK   11  A    between atoms: _23  and  _24
REMARK   12  A    between atoms: _24  and  _25
REMARK   13  A    between atoms: _34  and  _36
REMARK   14  A    between atoms: _36  and  _37
REMARK   15  A    between atoms: _36  and  _39
REMARK   16  A    between atoms: _39  and  _40
REMARK   17  A    between atoms: _42  and  _44
REMARK   18  A    between atoms: _44  and  _45
REMARK   19  A    between atoms: _44  and  _47
REMARK   20  A    between atoms: _47  and  _48
REMARK   21  A    between atoms: _51  and  _53
REMARK   22  A    between atoms: _53  and  _54
REMARK   23  A    between atoms: _53  and  _56
REMARK   24  A    between atoms: _56  and  _57
REMARK   25  A    between atoms: _59  and  _61
REMARK   26  A    between atoms: _61  and  _62
REMARK   27  A    between atoms: _61  and  _64
REMARK   28  A    between atoms: _64  and  _65
REMARK   29  A    between atoms: _65  and  _66
REMARK   30  A    between atoms: _66  and  _67
REMARK   31  A    between atoms: _67  and  _68
REMARK   32  A    between atoms: _73  and  _74
REMARK   33  A    between atoms: _79  and  _81
REMARK   34  A    between atoms: _81  and  _82
REMARK   35  A    between atoms: _81  and  _84
REMARK   36  A    between atoms: _84  and  _85
REMARK   37  A    between atoms: _90  and  _92
REMARK   38  A    between atoms: _92  and  _93
REMARK   39  A    between atoms: _92  and  _95
REMARK   40  A    between atoms: _95  and  _96
REMARK   41  A    between atoms: _96  and  _97
REMARK   42  A    between atoms: _102  and  _104
REMARK   43  A    between atoms: _104  and  _105
REMARK   44  A    between atoms: _104  and  _107
REMARK   45  A    between atoms: _107  and  _108
REMARK   46  A    between atoms: _108  and  _109
REMARK   47  A    between atoms: _109  and  _110
REMARK   48  A    between atoms: _110  and  _111
REMARK   49  A    between atoms: _115  and  _117
REMARK   50  A    between atoms: _117  and  _118
REMARK   51  A    between atoms: _117  and  _120
REMARK   52  A    between atoms: _120  and  _121
REMARK   53  A    between atoms: _121  and  _122
REMARK   54  A    between atoms: _125  and  _127
REMARK   55  A    between atoms: _127  and  _128
REMARK   56  A    between atoms: _127  and  _130
REMARK   57  A    between atoms: _133  and  _135
REMARK   58  A    between atoms: _135  and  _136
REMARK   59  A    between atoms: _135  and  _138
REMARK   60  A    between atoms: _141  and  _143
REMARK   61  A    between atoms: _143  and  _144
REMARK   62  A    between atoms: _143  and  _146
REMARK   63  A    between atoms: _146  and  _147
REMARK   64  A    between atoms: _149  and  _151
REMARK   65  A    between atoms: _151  and  _152
REMARK   66  A    between atoms: _151  and  _154
REMARK   67  A    between atoms: _154  and  _155
REMARK   68  A    between atoms: _158  and  _160
REMARK   69  A    between atoms: _160  and  _161
REMARK   70  A    between atoms: _164  and  _165
REMARK   71  A    between atoms: _170  and  _172
REMARK   72  A    between atoms: _172  and  _173
REMARK   73  A    between atoms: _172  and  _175
REMARK   74  A    between atoms: _175  and  _176
REMARK   75  A    between atoms: _176  and  _177
REMARK   76  A    between atoms: _182  and  _184
REMARK   77  A    between atoms: _184  and  _185
REMARK   78  A    between atoms: _187  and  _189
REMARK   79  A    between atoms: _189  and  _190
REMARK   80  A    between atoms: _193  and  _195
REMARK   81  A    between atoms: _195  and  _196
REMARK   82  A    between atoms: _195  and  _198
REMARK   83  A    between atoms: _198  and  _199
REMARK   84  A    between atoms: _202  and  _204
REMARK   85  A    between atoms: _204  and  _205
REMARK   86  A    between atoms: _204  and  _207
REMARK   87  A    between atoms: _210  and  _212
REMARK   88  A    between atoms: _212  and  _213
REMARK   89  A    between atoms: _212  and  _215
REMARK   90  A    between atoms: _219  and  _220
REMARK   91  A    between atoms: _226  and  _227
REMARK   92  A    between atoms: _233  and  _234
REMARK   93  A    between atoms: _239  and  _241
REMARK   94  A    between atoms: _241  and  _242
REMARK   95  A    between atoms: _241  and  _244
REMARK   96  A    between atoms: _247  and  _249
REMARK   97  A    between atoms: _249  and  _250
REMARK   98  A    between atoms: _249  and  _252
REMARK   99  A    between atoms: _252  and  _253
REMARK  100  A    between atoms: _253  and  _254
REMARK  101  A    between atoms: _254  and  _255
REMARK  102  A    between atoms: _255  and  _256
REMARK  103  A    between atoms: _260  and  _262
REMARK  104  A    between atoms: _262  and  _263
REMARK  105  A    between atoms: _262  and  _265
REMARK  106  A    between atoms: _265  and  _266
REMARK  107  A    between atoms: _268  and  _270
REMARK  108  A    between atoms: _270  and  _271
REMARK  109  A    between atoms: _270  and  _273
REMARK  110  A    between atoms: _273  and  _274
REMARK  111  A    between atoms: _274  and  _275
REMARK  112  A    between atoms: _280  and  _282
REMARK  113  A    between atoms: _282  and  _283
REMARK  114  A    between atoms: _282  and  _285
REMARK  115  A    between atoms: _285  and  _286
REMARK  116  A    between atoms: _288  and  _290
REMARK  117  A    between atoms: _290  and  _291
REMARK  118  A    between atoms: _290  and  _293
REMARK  119  A    between atoms: _293  and  _294
REMARK  120  A    between atoms: _297  and  _299
REMARK  121  A    between atoms: _299  and  _300
REMARK  122  A    between atoms: _299  and  _302
REMARK  123  A    between atoms: _305  and  _307
REMARK  124  A    between atoms: _307  and  _308
REMARK  125  A    between atoms: _310  and  _312
REMARK  126  A    between atoms: _312  and  _313
REMARK  127  A    between atoms: _316  and  _318
REMARK  128  A    between atoms: _318  and  _319
REMARK  129  A    between atoms: _321  and  _323
REMARK  130  A    between atoms: _323  and  _324
REMARK  131  A    between atoms: _323  and  _326
REMARK  132  A    between atoms: _326  and  _327
REMARK  133  A    between atoms: _330  and  _332
REMARK  134  A    between atoms: _332  and  _333
REMARK  135  A    between atoms: _332  and  _335
REMARK  136  A    between atoms: _335  and  _336
REMARK  137  A    between atoms: _338  and  _340
REMARK  138  A    between atoms: _340  and  _341
REMARK  139  A    between atoms: _340  and  _343
REMARK  140  A    between atoms: _343  and  _344
REMARK  141  A    between atoms: _344  and  _345
REMARK  142  A    between atoms: _347  and  _349
REMARK  143  A    between atoms: _349  and  _350
REMARK  144  A    between atoms: _349  and  _352
REMARK  145  A    between atoms: _355  and  _357
REMARK  146  A    between atoms: _357  and  _358
REMARK  147  A    between atoms: _357  and  _360
REMARK  148  A    between atoms: _360  and  _361
REMARK  149  A    between atoms: _361  and  _362
REMARK  150  A    between atoms: _364  and  _366
REMARK  151  A    between atoms: _366  and  _367
REMARK  152  A    between atoms: _366  and  _369
REMARK  153  A    between atoms: _372  and  _374
REMARK  154  A    between atoms: _374  and  _375
REMARK  155  A    between atoms: _374  and  _377
REMARK  156  A    between atoms: _377  and  _378
REMARK  157  A    between atoms: _378  and  _379
REMARK  158  A    between atoms: _379  and  _380
REMARK  159  A    between atoms: _389  and  _391
REMARK  160  A    between atoms: _391  and  _392
REMARK  161  A    between atoms: _391  and  _394
REMARK  162  A    between atoms: _394  and  _395
REMARK  163  A    between atoms: _401  and  _403
REMARK  164  A    between atoms: _403  and  _404
REMARK  165  A    between atoms: _406  and  _408
REMARK  166  A    between atoms: _408  and  _409
REMARK  167  A    between atoms: _408  and  _411
REMARK  168  A    between atoms: _414  and  _416
REMARK  169  A    between atoms: _416  and  _417
REMARK  170  A    between atoms: _420  and  _422
REMARK  171  A    between atoms: _422  and  _423
REMARK  172  A    between atoms: _426  and  _428
REMARK  173  A    between atoms: _428  and  _429
REMARK  174  A    between atoms: _431  and  _433
REMARK  175  A    between atoms: _433  and  _434
REMARK  176  A    between atoms: _433  and  _436
REMARK  177  A    between atoms: _436  and  _437
REMARK  178  A    between atoms: _439  and  _441
REMARK  179  A    between atoms: _441  and  _442
REMARK  180  A    between atoms: _445  and  _447
REMARK  181  A    between atoms: _447  and  _448
REMARK  182  A    between atoms: _451  and  _453
REMARK  183  A    between atoms: _453  and  _454
REMARK  184  A    between atoms: _453  and  _456
REMARK  185  A    between atoms: _456  and  _457
REMARK  186  A    between atoms: _460  and  _462
REMARK  187  A    between atoms: _462  and  _463
REMARK  188  A    between atoms: _462  and  _465
REMARK  189  A    between atoms: _465  and  _466
REMARK  190  A    between atoms: _469  and  _471
REMARK  191  A    between atoms: _471  and  _472
REMARK  192  A    between atoms: _471  and  _474
REMARK  193  A    between atoms: _474  and  _475
REMARK  194  A    between atoms: _478  and  _480
REMARK  195  A    between atoms: _480  and  _481
REMARK  196  A    between atoms: _480  and  _483
REMARK  197  A    between atoms: _483  and  _484
REMARK  198  A    between atoms: _487  and  _489
REMARK  199  A    between atoms: _489  and  _490
REMARK  200  A    between atoms: _489  and  _492
REMARK  201  A    between atoms: _492  and  _493
REMARK  202  A    between atoms: _496  and  _498
REMARK  203  A    between atoms: _498  and  _499
REMARK  204  A    between atoms: _498  and  _501
REMARK  205  A    between atoms: _501  and  _502
REMARK  206  A    between atoms: _502  and  _503
REMARK  207  A    between atoms: _506  and  _508
REMARK  208  A    between atoms: _508  and  _509
REMARK  209  A    between atoms: _511  and  _513
REMARK  210  A    between atoms: _513  and  _514
REMARK  211  A    between atoms: _513  and  _516
REMARK  212  A    between atoms: _516  and  _517
REMARK  213  A    between atoms: _517  and  _518
REMARK  214  A    between atoms: _518  and  _519
REMARK  215  A    between atoms: _519  and  _520
REMARK  216  A    between atoms: _524  and  _526
REMARK  217  A    between atoms: _526  and  _527
REMARK  218  A    between atoms: _526  and  _529
REMARK  219  A    between atoms: _529  and  _530
REMARK  220  A    between atoms: _530  and  _531
REMARK  221  A    between atoms: _537  and  _538
REMARK  222  A    between atoms: _543  and  _545
REMARK  223  A    between atoms: _545  and  _546
REMARK  224  A    between atoms: _545  and  _548
REMARK  225  A    between atoms: _548  and  _549
REMARK  226  A    between atoms: _549  and  _550
REMARK                            x       y       z     vdW  Elec       q    Type
REMARK                         _______ _______ _______ _____ _____    ______ ____
ROOT
ATOM      1  O   HOH     1      14.434 -18.370  10.630  0.00  0.00    +0.000 OA
ENDROOT
TORSDOF 0
REMARK  Name = ../refined-set-2016/3umo/3umo_pocket.pdb
REMARK  226 active torsions:
REMARK  status: ('A' for Active; 'I' for Inactive)
REMARK    1  A    between atoms: _1  and  _3
REMARK    2  A    between atoms: _3  and  _4
REMARK    3  A    between atoms: _6  and  _8
REMARK    4  A    between atoms: _8  and  _9
REMARK    5  A    between atoms: _8  and  _11
REMARK    6  A    between atoms: _11  and  _12
REMARK    7  A    between atoms: _17  and  _19
REMARK    8  A    between atoms: _19  and  _20
REMARK    9  A    between atoms: _19  and  _22
REMARK   10  A    between atoms: _22  and  _23
REMARK   11  A    between atoms: _23  and  _24
REMARK   12  A    between atoms: _24  and  _25
REMARK   13  A    between atoms: _34  and  _36
REMARK   14  A    between atoms: _36  and  _37
REMARK   15  A    between atoms: _36  and  _39
REMARK   16  A    between atoms: _39  and  _40
REMARK   17  A    between atoms: _42  and  _44
REMARK   18  A    between atoms: _44  and  _45
REMARK   19  A    between atoms: _44  and  _47
REMARK   20  A    between atoms: _47  and  _48
REMARK   21  A    between atoms: _51  and  _53
REMARK   22  A    between atoms: _53  and  _54
REMARK   23  A    between atoms: _53  and  _56
REMARK   24  A    between atoms: _56  and  _57
REMARK   25  A    between atoms: _59  and  _61
REMARK   26  A    between atoms: _61  and  _62
REMARK   27  A    between atoms: _61  and  _64
REMARK   28  A    between atoms: _64  and  _65
REMARK   29  A    between atoms: _65  and  _66
REMARK   30  A    between atoms: _66  and  _67
REMARK   31  A    between atoms: _67  and  _68
REMARK   32  A    between atoms: _73  and  _74
REMARK   33  A    between atoms: _79  and  _81
REMARK   34  A    between atoms: _81  and  _82
REMARK   35  A    between atoms: _81  and  _84
REMARK   36  A    between atoms: _84  and  _85
REMARK   37  A    between atoms: _90  and  _92
REMARK   38  A    between atoms: _92  and  _93
REMARK   39  A    between atoms: _92  and  _95
REMARK   40  A    between atoms: _95  and  _96
REMARK   41  A    between atoms: _96  and  _97
REMARK   42  A    between atoms: _102  and  _104
REMARK   43  A    between atoms: _104  and  _105
REMARK   44  A    between atoms: _104  and  _107
REMARK   45  A    between atoms: _107  and  _108
REMARK   46  A    between atoms: _108  and  _109
REMARK   47  A    between atoms: _109  and  _110
REMARK   48  A    between atoms: _110  and  _111
REMARK   49  A    between atoms: _115  and  _117
REMARK   50  A    between atoms: _117  and  _118
REMARK   51  A    between atoms: _117  and  _120
REMARK   52  A    between atoms: _120  and  _121
REMARK   53  A    between atoms: _121  and  _122
REMARK   54  A    between atoms: _125  and  _127
REMARK   55  A    between atoms: _127  and  _128
REMARK   56  A    between atoms: _127  and  _130
REMARK   57  A    between atoms: _133  and  _135
REMARK   58  A    between atoms: _135  and  _136
REMARK   59  A    between atoms: _135  and  _138
REMARK   60  A    between atoms: _141  and  _143
REMARK   61  A    between atoms: _143  and  _144
REMARK   62  A    between atoms: _143  and  _146
REMARK   63  A    between atoms: _146  and  _147
REMARK   64  A    between atoms: _149  and  _151
REMARK   65  A    between atoms: _151  and  _152
REMARK   66  A    between atoms: _151  and  _154
REMARK   67  A    between atoms: _154  and  _155
REMARK   68  A    between atoms: _158  and  _160
REMARK   69  A    between atoms: _160  and  _161
REMARK   70  A    between atoms: _164  and  _165
REMARK   71  A    between atoms: _170  and  _172
REMARK   72  A    between atoms: _172  and  _173
REMARK   73  A    between atoms: _172  and  _175
REMARK   74  A    between atoms: _175  and  _176
REMARK   75  A    between atoms: _176  and  _177
REMARK   76  A    between atoms: _182  and  _184
REMARK   77  A    between atoms: _184  and  _185
REMARK   78  A    between atoms: _187  and  _189
REMARK   79  A    between atoms: _189  and  _190
REMARK   80  A    between atoms: _193  and  _195
REMARK   81  A    between atoms: _195  and  _196
REMARK   82  A    between atoms: _195  and  _198
REMARK   83  A    between atoms: _198  and  _199
REMARK   84  A    between atoms: _202  and  _204
REMARK   85  A    between atoms: _204  and  _205
REMARK   86  A    between atoms: _204  and  _207
REMARK   87  A    between atoms: _210  and  _212
REMARK   88  A    between atoms: _212  and  _213
REMARK   89  A    between atoms: _212  and  _215
REMARK   90  A    between atoms: _219  and  _220
REMARK   91  A    between atoms: _226  and  _227
REMARK   92  A    between atoms: _233  and  _234
REMARK   93  A    between atoms: _239  and  _241
REMARK   94  A    between atoms: _241  and  _242
REMARK   95  A    between atoms: _241  and  _244
REMARK   96  A    between atoms: _247  and  _249
REMARK   97  A    between atoms: _249  and  _250
REMARK   98  A    between atoms: _249  and  _252
REMARK   99  A    between atoms: _252  and  _253
REMARK  100  A    between atoms: _253  and  _254
REMARK  101  A    between atoms: _254  and  _255
REMARK  102  A    between atoms: _255  and  _256
REMARK  103  A    between atoms: _260  and  _262
REMARK  104  A    between atoms: _262  and  _263
REMARK  105  A    between atoms: _262  and  _265
REMARK  106  A    between atoms: _265  and  _266
REMARK  107  A    between atoms: _268  and  _270
REMARK  108  A    between atoms: _270  and  _271
REMARK  109  A    between atoms: _270  and  _273
REMARK  110  A    between atoms: _273  and  _274
REMARK  111  A    between atoms: _274  and  _275
REMARK  112  A    between atoms: _280  and  _282
REMARK  113  A    between atoms: _282  and  _283
REMARK  114  A    between atoms: _282  and  _285
REMARK  115  A    between atoms: _285  and  _286
REMARK  116  A    between atoms: _288  and  _290
REMARK  117  A    between atoms: _290  and  _291
REMARK  118  A    between atoms: _290  and  _293
REMARK  119  A    between atoms: _293  and  _294
REMARK  120  A    between atoms: _297  and  _299
REMARK  121  A    between atoms: _299  and  _300
REMARK  122  A    between atoms: _299  and  _302
REMARK  123  A    between atoms: _305  and  _307
REMARK  124  A    between atoms: _307  and  _308
REMARK  125  A    between atoms: _310  and  _312
REMARK  126  A    between atoms: _312  and  _313
REMARK  127  A    between atoms: _316  and  _318
REMARK  128  A    between atoms: _318  and  _319
REMARK  129  A    between atoms: _321  and  _323
REMARK  130  A    between atoms: _323  and  _324
REMARK  131  A    between atoms: _323  and  _326
REMARK  132  A    between atoms: _326  and  _327
REMARK  133  A    between atoms: _330  and  _332
REMARK  134  A    between atoms: _332  and  _333
REMARK  135  A    between atoms: _332  and  _335
REMARK  136  A    between atoms: _335  and  _336
REMARK  137  A    between atoms: _338  and  _340
REMARK  138  A    between atoms: _340  and  _341
REMARK  139  A    between atoms: _340  and  _343
REMARK  140  A    between atoms: _343  and  _344
REMARK  141  A    between atoms: _344  and  _345
REMARK  142  A    between atoms: _347  and  _349
REMARK  143  A    between atoms: _349  and  _350
REMARK  144  A    between atoms: _349  and  _352
REMARK  145  A    between atoms: _355  and  _357
REMARK  146  A    between atoms: _357  and  _358
REMARK  147  A    between atoms: _357  and  _360
REMARK  148  A    between atoms: _360  and  _361
REMARK  149  A    between atoms: _361  and  _362
REMARK  150  A    between atoms: _364  and  _366
REMARK  151  A    between atoms: _366  and  _367
REMARK  152  A    between atoms: _366  and  _369
REMARK  153  A    between atoms: _372  and  _374
REMARK  154  A    between atoms: _374  and  _375
REMARK  155  A    between atoms: _374  and  _377
REMARK  156  A    between atoms: _377  and  _378
REMARK  157  A    between atoms: _378  and  _379
REMARK  158  A    between atoms: _379  and  _380
REMARK  159  A    between atoms: _389  and  _391
REMARK  160  A    between atoms: _391  and  _392
REMARK  161  A    between atoms: _391  and  _394
REMARK  162  A    between atoms: _394  and  _395
REMARK  163  A    between atoms: _401  and  _403
REMARK  164  A    between atoms: _403  and  _404
REMARK  165  A    between atoms: _406  and  _408
REMARK  166  A    between atoms: _408  and  _409
REMARK  167  A    between atoms: _408  and  _411
REMARK  168  A    between atoms: _414  and  _416
REMARK  169  A    between atoms: _416  and  _417
REMARK  170  A    between atoms: _420  and  _422
REMARK  171  A    between atoms: _422  and  _423
REMARK  172  A    between atoms: _426  and  _428
REMARK  173  A    between atoms: _428  and  _429
REMARK  174  A    between atoms: _431  and  _433
REMARK  175  A    between atoms: _433  and  _434
REMARK  176  A    between atoms: _433  and  _436
REMARK  177  A    between atoms: _436  and  _437
REMARK  178  A    between atoms: _439  and  _441
REMARK  179  A    between atoms: _441  and  _442
REMARK  180  A    between atoms: _445  and  _447
REMARK  181  A    between atoms: _447  and  _448
REMARK  182  A    between atoms: _451  and  _453
REMARK  183  A    between atoms: _453  and  _454
REMARK  184  A    between atoms: _453  and  _456
REMARK  185  A    between atoms: _456  and  _457
REMARK  186  A    between atoms: _460  and  _462
REMARK  187  A    between atoms: _462  and  _463
REMARK  188  A    between atoms: _462  and  _465
REMARK  189  A    between atoms: _465  and  _466
REMARK  190  A    between atoms: _469  and  _471
REMARK  191  A    between atoms: _471  and  _472
REMARK  192  A    between atoms: _471  and  _474
REMARK  193  A    between atoms: _474  and  _475
REMARK  194  A    between atoms: _478  and  _480
REMARK  195  A    between atoms: _480  and  _481
REMARK  196  A    between atoms: _480  and  _483
REMARK  197  A    between atoms: _483  and  _484
REMARK  198  A    between atoms: _487  and  _489
REMARK  199  A    between atoms: _489  and  _490
REMARK  200  A    between atoms: _489  and  _492
REMARK  201  A    between atoms: _492  and  _493
REMARK  202  A    between atoms: _496  and  _498
REMARK  203  A    between atoms: _498  and  _499
REMARK  204  A    between atoms: _498  and  _501
REMARK  205  A    between atoms: _501  and  _502
REMARK  206  A    between atoms: _502  and  _503
REMARK  207  A    between atoms: _506  and  _508
REMARK  208  A    between atoms: _508  and  _509
REMARK  209  A    between atoms: _511  and  _513
REMARK  210  A    between atoms: _513  and  _514
REMARK  211  A    between atoms: _513  and  _516
REMARK  212  A    between atoms: _516  and  _517
REMARK  213  A    between atoms: _517  and  _518
REMARK  214  A    between atoms: _518  and  _519
REMARK  215  A    between atoms: _519  and  _520
REMARK  216  A    between atoms: _524  and  _526
REMARK  217  A    between atoms: _526  and  _527
REMARK  218  A    between atoms: _526  and  _529
REMARK  219  A    between atoms: _529  and  _530
REMARK  220  A    between atoms: _530  and  _531
REMARK  221  A    between atoms: _537  and  _538
REMARK  222  A    between atoms: _543  and  _545
REMARK  223  A    between atoms: _545  and  _546
REMARK  224  A    between atoms: _545  and  _548
REMARK  225  A    between atoms: _548  and  _549
REMARK  226  A    between atoms: _549  and  _550
REMARK                            x       y       z     vdW  Elec       q    Type
REMARK                         _______ _______ _______ _____ _____    ______ ____
ROOT
ATOM      1  O   HOH     1       7.087 -13.009  13.255  0.00  0.00    +0.000 OA
ENDROOT
TORSDOF 0
REMARK  Name = ../refined-set-2016/3umo/3umo_pocket.pdb
REMARK  226 active torsions:
REMARK  status: ('A' for Active; 'I' for Inactive)
REMARK    1  A    between atoms: _1  and  _3
REMARK    2  A    between atoms: _3  and  _4
REMARK    3  A    between atoms: _6  and  _8
REMARK    4  A    between atoms: _8  and  _9
REMARK    5  A    between atoms: _8  and  _11
REMARK    6  A    between atoms: _11  and  _12
REMARK    7  A    between atoms: _17  and  _19
REMARK    8  A    between atoms: _19  and  _20
REMARK    9  A    between atoms: _19  and  _22
REMARK   10  A    between atoms: _22  and  _23
REMARK   11  A    between atoms: _23  and  _24
REMARK   12  A    between atoms: _24  and  _25
REMARK   13  A    between atoms: _34  and  _36
REMARK   14  A    between atoms: _36  and  _37
REMARK   15  A    between atoms: _36  and  _39
REMARK   16  A    between atoms: _39  and  _40
REMARK   17  A    between atoms: _42  and  _44
REMARK   18  A    between atoms: _44  and  _45
REMARK   19  A    between atoms: _44  and  _47
REMARK   20  A    between atoms: _47  and  _48
REMARK   21  A    between atoms: _51  and  _53
REMARK   22  A    between atoms: _53  and  _54
REMARK   23  A    between atoms: _53  and  _56
REMARK   24  A    between atoms: _56  and  _57
REMARK   25  A    between atoms: _59  and  _61
REMARK   26  A    between atoms: _61  and  _62
REMARK   27  A    between atoms: _61  and  _64
REMARK   28  A    between atoms: _64  and  _65
REMARK   29  A    between atoms: _65  and  _66
REMARK   30  A    between atoms: _66  and  _67
REMARK   31  A    between atoms: _67  and  _68
REMARK   32  A    between atoms: _73  and  _74
REMARK   33  A    between atoms: _79  and  _81
REMARK   34  A    between atoms: _81  and  _82
REMARK   35  A    between atoms: _81  and  _84
REMARK   36  A    between atoms: _84  and  _85
REMARK   37  A    between atoms: _90  and  _92
REMARK   38  A    between atoms: _92  and  _93
REMARK   39  A    between atoms: _92  and  _95
REMARK   40  A    between atoms: _95  and  _96
REMARK   41  A    between atoms: _96  and  _97
REMARK   42  A    between atoms: _102  and  _104
REMARK   43  A    between atoms: _104  and  _105
REMARK   44  A    between atoms: _104  and  _107
REMARK   45  A    between atoms: _107  and  _108
REMARK   46  A    between atoms: _108  and  _109
REMARK   47  A    between atoms: _109  and  _110
REMARK   48  A    between atoms: _110  and  _111
REMARK   49  A    between atoms: _115  and  _117
REMARK   50  A    between atoms: _117  and  _118
REMARK   51  A    between atoms: _117  and  _120
REMARK   52  A    between atoms: _120  and  _121
REMARK   53  A    between atoms: _121  and  _122
REMARK   54  A    between atoms: _125  and  _127
REMARK   55  A    between atoms: _127  and  _128
REMARK   56  A    between atoms: _127  and  _130
REMARK   57  A    between atoms: _133  and  _135
REMARK   58  A    between atoms: _135  and  _136
REMARK   59  A    between atoms: _135  and  _138
REMARK   60  A    between atoms: _141  and  _143
REMARK   61  A    between atoms: _143  and  _144
REMARK   62  A    between atoms: _143  and  _146
REMARK   63  A    between atoms: _146  and  _147
REMARK   64  A    between atoms: _149  and  _151
REMARK   65  A    between atoms: _151  and  _152
REMARK   66  A    between atoms: _151  and  _154
REMARK   67  A    between atoms: _154  and  _155
REMARK   68  A    between atoms: _158  and  _160
REMARK   69  A    between atoms: _160  and  _161
REMARK   70  A    between atoms: _164  and  _165
REMARK   71  A    between atoms: _170  and  _172
REMARK   72  A    between atoms: _172  and  _173
REMARK   73  A    between atoms: _172  and  _175
REMARK   74  A    between atoms: _175  and  _176
REMARK   75  A    between atoms: _176  and  _177
REMARK   76  A    between atoms: _182  and  _184
REMARK   77  A    between atoms: _184  and  _185
REMARK   78  A    between atoms: _187  and  _189
REMARK   79  A    between atoms: _189  and  _190
REMARK   80  A    between atoms: _193  and  _195
REMARK   81  A    between atoms: _195  and  _196
REMARK   82  A    between atoms: _195  and  _198
REMARK   83  A    between atoms: _198  and  _199
REMARK   84  A    between atoms: _202  and  _204
REMARK   85  A    between atoms: _204  and  _205
REMARK   86  A    between atoms: _204  and  _207
REMARK   87  A    between atoms: _210  and  _212
REMARK   88  A    between atoms: _212  and  _213
REMARK   89  A    between atoms: _212  and  _215
REMARK   90  A    between atoms: _219  and  _220
REMARK   91  A    between atoms: _226  and  _227
REMARK   92  A    between atoms: _233  and  _234
REMARK   93  A    between atoms: _239  and  _241
REMARK   94  A    between atoms: _241  and  _242
REMARK   95  A    between atoms: _241  and  _244
REMARK   96  A    between atoms: _247  and  _249
REMARK   97  A    between atoms: _249  and  _250
REMARK   98  A    between atoms: _249  and  _252
REMARK   99  A    between atoms: _252  and  _253
REMARK  100  A    between atoms: _253  and  _254
REMARK  101  A    between atoms: _254  and  _255
REMARK  102  A    between atoms: _255  and  _256
REMARK  103  A    between atoms: _260  and  _262
REMARK  104  A    between atoms: _262  and  _263
REMARK  105  A    between atoms: _262  and  _265
REMARK  106  A    between atoms: _265  and  _266
REMARK  107  A    between atoms: _268  and  _270
REMARK  108  A    between atoms: _270  and  _271
REMARK  109  A    between atoms: _270  and  _273
REMARK  110  A    between atoms: _273  and  _274
REMARK  111  A    between atoms: _274  and  _275
REMARK  112  A    between atoms: _280  and  _282
REMARK  113  A    between atoms: _282  and  _283
REMARK  114  A    between atoms: _282  and  _285
REMARK  115  A    between atoms: _285  and  _286
REMARK  116  A    between atoms: _288  and  _290
REMARK  117  A    between atoms: _290  and  _291
REMARK  118  A    between atoms: _290  and  _293
REMARK  119  A    between atoms: _293  and  _294
REMARK  120  A    between atoms: _297  and  _299
REMARK  121  A    between atoms: _299  and  _300
REMARK  122  A    between atoms: _299  and  _302
REMARK  123  A    between atoms: _305  and  _307
REMARK  124  A    between atoms: _307  and  _308
REMARK  125  A    between atoms: _310  and  _312
REMARK  126  A    between atoms: _312  and  _313
REMARK  127  A    between atoms: _316  and  _318
REMARK  128  A    between atoms: _318  and  _319
REMARK  129  A    between atoms: _321  and  _323
REMARK  130  A    between atoms: _323  and  _324
REMARK  131  A    between atoms: _323  and  _326
REMARK  132  A    between atoms: _326  and  _327
REMARK  133  A    between atoms: _330  and  _332
REMARK  134  A    between atoms: _332  and  _333
REMARK  135  A    between atoms: _332  and  _335
REMARK  136  A    between atoms: _335  and  _336
REMARK  137  A    between atoms: _338  and  _340
REMARK  138  A    between atoms: _340  and  _341
REMARK  139  A    between atoms: _340  and  _343
REMARK  140  A    between atoms: _343  and  _344
REMARK  141  A    between atoms: _344  and  _345
REMARK  142  A    between atoms: _347  and  _349
REMARK  143  A    between atoms: _349  and  _350
REMARK  144  A    between atoms: _349  and  _352
REMARK  145  A    between atoms: _355  and  _357
REMARK  146  A    between atoms: _357  and  _358
REMARK  147  A    between atoms: _357  and  _360
REMARK  148  A    between atoms: _360  and  _361
REMARK  149  A    between atoms: _361  and  _362
REMARK  150  A    between atoms: _364  and  _366
REMARK  151  A    between atoms: _366  and  _367
REMARK  152  A    between atoms: _366  and  _369
REMARK  153  A    between atoms: _372  and  _374
REMARK  154  A    between atoms: _374  and  _375
REMARK  155  A    between atoms: _374  and  _377
REMARK  156  A    between atoms: _377  and  _378
REMARK  157  A    between atoms: _378  and  _379
REMARK  158  A    between atoms: _379  and  _380
REMARK  159  A    between atoms: _389  and  _391
REMARK  160  A    between atoms: _391  and  _392
REMARK  161  A    between atoms: _391  and  _394
REMARK  162  A    between atoms: _394  and  _395
REMARK  163  A    between atoms: _401  and  _403
REMARK  164  A    between atoms: _403  and  _404
REMARK  165  A    between atoms: _406  and  _408
REMARK  166  A    between atoms: _408  and  _409
REMARK  167  A    between atoms: _408  and  _411
REMARK  168  A    between atoms: _414  and  _416
REMARK  169  A    between atoms: _416  and  _417
REMARK  170  A    between atoms: _420  and  _422
REMARK  171  A    between atoms: _422  and  _423
REMARK  172  A    between atoms: _426  and  _428
REMARK  173  A    between atoms: _428  and  _429
REMARK  174  A    between atoms: _431  and  _433
REMARK  175  A    between atoms: _433  and  _434
REMARK  176  A    between atoms: _433  and  _436
REMARK  177  A    between atoms: _436  and  _437
REMARK  178  A    between atoms: _439  and  _441
REMARK  179  A    between atoms: _441  and  _442
REMARK  180  A    between atoms: _445  and  _447
REMARK  181  A    between atoms: _447  and  _448
REMARK  182  A    between atoms: _451  and  _453
REMARK  183  A    between atoms: _453  and  _454
REMARK  184  A    between atoms: _453  and  _456
REMARK  185  A    between atoms: _456  and  _457
REMARK  186  A    between atoms: _460  and  _462
REMARK  187  A    between atoms: _462  and  _463
REMARK  188  A    between atoms: _462  and  _465
REMARK  189  A    between atoms: _465  and  _466
REMARK  190  A    between atoms: _469  and  _471
REMARK  191  A    between atoms: _471  and  _472
REMARK  192  A    between atoms: _471  and  _474
REMARK  193  A    between atoms: _474  and  _475
REMARK  194  A    between atoms: _478  and  _480
REMARK  195  A    between atoms: _480  and  _481
REMARK  196  A    between atoms: _480  and  _483
REMARK  197  A    between atoms: _483  and  _484
REMARK  198  A    between atoms: _487  and  _489
REMARK  199  A    between atoms: _489  and  _490
REMARK  200  A    between atoms: _489  and  _492
REMARK  201  A    between atoms: _492  and  _493
REMARK  202  A    between atoms: _496  and  _498
REMARK  203  A    between atoms: _498  and  _499
REMARK  204  A    between atoms: _498  and  _501
REMARK  205  A    between atoms: _501  and  _502
REMARK  206  A    between atoms: _502  and  _503
REMARK  207  A    between atoms: _506  and  _508
REMARK  208  A    between atoms: _508  and  _509
REMARK  209  A    between atoms: _511  and  _513
REMARK  210  A    between atoms: _513  and  _514
REMARK  211  A    between atoms: _513  and  _516
REMARK  212  A    between atoms: _516  and  _517
REMARK  213  A    between atoms: _517  and  _518
REMARK  214  A    between atoms: _518  and  _519
REMARK  215  A    between atoms: _519  and  _520
REMARK  216  A    between atoms: _524  and  _526
REMARK  217  A    between atoms: _526  and  _527
REMARK  218  A    between atoms: _526  and  _529
REMARK  219  A    between atoms: _529  and  _530
REMARK  220  A    between atoms: _530  and  _531
REMARK  221  A    between atoms: _537  and  _538
REMARK  222  A    between atoms: _543  and  _545
REMARK  223  A    between atoms: _545  and  _546
REMARK  224  A    between atoms: _545  and  _548
REMARK  225  A    between atoms: _548  and  _549
REMARK  226  A    between atoms: _549  and  _550
REMARK                            x       y       z     vdW  Elec       q    Type
REMARK                         _______ _______ _______ _____ _____    ______ ____
ROOT
ATOM      1  O   HOH     1       6.023 -15.186  14.089  0.00  0.00    +0.000 OA
ENDROOT
TORSDOF 0
REMARK  Name = ../refined-set-2016/3umo/3umo_pocket.pdb
REMARK  226 active torsions:
REMARK  status: ('A' for Active; 'I' for Inactive)
REMARK    1  A    between atoms: _1  and  _3
REMARK    2  A    between atoms: _3  and  _4
REMARK    3  A    between atoms: _6  and  _8
REMARK    4  A    between atoms: _8  and  _9
REMARK    5  A    between atoms: _8  and  _11
REMARK    6  A    between atoms: _11  and  _12
REMARK    7  A    between atoms: _17  and  _19
REMARK    8  A    between atoms: _19  and  _20
REMARK    9  A    between atoms: _19  and  _22
REMARK   10  A    between atoms: _22  and  _23
REMARK   11  A    between atoms: _23  and  _24
REMARK   12  A    between atoms: _24  and  _25
REMARK   13  A    between atoms: _34  and  _36
REMARK   14  A    between atoms: _36  and  _37
REMARK   15  A    between atoms: _36  and  _39
REMARK   16  A    between atoms: _39  and  _40
REMARK   17  A    between atoms: _42  and  _44
REMARK   18  A    between atoms: _44  and  _45
REMARK   19  A    between atoms: _44  and  _47
REMARK   20  A    between atoms: _47  and  _48
REMARK   21  A    between atoms: _51  and  _53
REMARK   22  A    between atoms: _53  and  _54
REMARK   23  A    between atoms: _53  and  _56
REMARK   24  A    between atoms: _56  and  _57
REMARK   25  A    between atoms: _59  and  _61
REMARK   26  A    between atoms: _61  and  _62
REMARK   27  A    between atoms: _61  and  _64
REMARK   28  A    between atoms: _64  and  _65
REMARK   29  A    between atoms: _65  and  _66
REMARK   30  A    between atoms: _66  and  _67
REMARK   31  A    between atoms: _67  and  _68
REMARK   32  A    between atoms: _73  and  _74
REMARK   33  A    between atoms: _79  and  _81
REMARK   34  A    between atoms: _81  and  _82
REMARK   35  A    between atoms: _81  and  _84
REMARK   36  A    between atoms: _84  and  _85
REMARK   37  A    between atoms: _90  and  _92
REMARK   38  A    between atoms: _92  and  _93
REMARK   39  A    between atoms: _92  and  _95
REMARK   40  A    between atoms: _95  and  _96
REMARK   41  A    between atoms: _96  and  _97
REMARK   42  A    between atoms: _102  and  _104
REMARK   43  A    between atoms: _104  and  _105
REMARK   44  A    between atoms: _104  and  _107
REMARK   45  A    between atoms: _107  and  _108
REMARK   46  A    between atoms: _108  and  _109
REMARK   47  A    between atoms: _109  and  _110
REMARK   48  A    between atoms: _110  and  _111
REMARK   49  A    between atoms: _115  and  _117
REMARK   50  A    between atoms: _117  and  _118
REMARK   51  A    between atoms: _117  and  _120
REMARK   52  A    between atoms: _120  and  _121
REMARK   53  A    between atoms: _121  and  _122
REMARK   54  A    between atoms: _125  and  _127
REMARK   55  A    between atoms: _127  and  _128
REMARK   56  A    between atoms: _127  and  _130
REMARK   57  A    between atoms: _133  and  _135
REMARK   58  A    between atoms: _135  and  _136
REMARK   59  A    between atoms: _135  and  _138
REMARK   60  A    between atoms: _141  and  _143
REMARK   61  A    between atoms: _143  and  _144
REMARK   62  A    between atoms: _143  and  _146
REMARK   63  A    between atoms: _146  and  _147
REMARK   64  A    between atoms: _149  and  _151
REMARK   65  A    between atoms: _151  and  _152
REMARK   66  A    between atoms: _151  and  _154
REMARK   67  A    between atoms: _154  and  _155
REMARK   68  A    between atoms: _158  and  _160
REMARK   69  A    between atoms: _160  and  _161
REMARK   70  A    between atoms: _164  and  _165
REMARK   71  A    between atoms: _170  and  _172
REMARK   72  A    between atoms: _172  and  _173
REMARK   73  A    between atoms: _172  and  _175
REMARK   74  A    between atoms: _175  and  _176
REMARK   75  A    between atoms: _176  and  _177
REMARK   76  A    between atoms: _182  and  _184
REMARK   77  A    between atoms: _184  and  _185
REMARK   78  A    between atoms: _187  and  _189
REMARK   79  A    between atoms: _189  and  _190
REMARK   80  A    between atoms: _193  and  _195
REMARK   81  A    between atoms: _195  and  _196
REMARK   82  A    between atoms: _195  and  _198
REMARK   83  A    between atoms: _198  and  _199
REMARK   84  A    between atoms: _202  and  _204
REMARK   85  A    between atoms: _204  and  _205
REMARK   86  A    between atoms: _204  and  _207
REMARK   87  A    between atoms: _210  and  _212
REMARK   88  A    between atoms: _212  and  _213
REMARK   89  A    between atoms: _212  and  _215
REMARK   90  A    between atoms: _219  and  _220
REMARK   91  A    between atoms: _226  and  _227
REMARK   92  A    between atoms: _233  and  _234
REMARK   93  A    between atoms: _239  and  _241
REMARK   94  A    between atoms: _241  and  _242
REMARK   95  A    between atoms: _241  and  _244
REMARK   96  A    between atoms: _247  and  _249
REMARK   97  A    between atoms: _249  and  _250
REMARK   98  A    between atoms: _249  and  _252
REMARK   99  A    between atoms: _252  and  _253
REMARK  100  A    between atoms: _253  and  _254
REMARK  101  A    between atoms: _254  and  _255
REMARK  102  A    between atoms: _255  and  _256
REMARK  103  A    between atoms: _260  and  _262
REMARK  104  A    between atoms: _262  and  _263
REMARK  105  A    between atoms: _262  and  _265
REMARK  106  A    between atoms: _265  and  _266
REMARK  107  A    between atoms: _268  and  _270
REMARK  108  A    between atoms: _270  and  _271
REMARK  109  A    between atoms: _270  and  _273
REMARK  110  A    between atoms: _273  and  _274
REMARK  111  A    between atoms: _274  and  _275
REMARK  112  A    between atoms: _280  and  _282
REMARK  113  A    between atoms: _282  and  _283
REMARK  114  A    between atoms: _282  and  _285
REMARK  115  A    between atoms: _285  and  _286
REMARK  116  A    between atoms: _288  and  _290
REMARK  117  A    between atoms: _290  and  _291
REMARK  118  A    between atoms: _290  and  _293
REMARK  119  A    between atoms: _293  and  _294
REMARK  120  A    between atoms: _297  and  _299
REMARK  121  A    between atoms: _299  and  _300
REMARK  122  A    between atoms: _299  and  _302
REMARK  123  A    between atoms: _305  and  _307
REMARK  124  A    between atoms: _307  and  _308
REMARK  125  A    between atoms: _310  and  _312
REMARK  126  A    between atoms: _312  and  _313
REMARK  127  A    between atoms: _316  and  _318
REMARK  128  A    between atoms: _318  and  _319
REMARK  129  A    between atoms: _321  and  _323
REMARK  130  A    between atoms: _323  and  _324
REMARK  131  A    between atoms: _323  and  _326
REMARK  132  A    between atoms: _326  and  _327
REMARK  133  A    between atoms: _330  and  _332
REMARK  134  A    between atoms: _332  and  _333
REMARK  135  A    between atoms: _332  and  _335
REMARK  136  A    between atoms: _335  and  _336
REMARK  137  A    between atoms: _338  and  _340
REMARK  138  A    between atoms: _340  and  _341
REMARK  139  A    between atoms: _340  and  _343
REMARK  140  A    between atoms: _343  and  _344
REMARK  141  A    between atoms: _344  and  _345
REMARK  142  A    between atoms: _347  and  _349
REMARK  143  A    between atoms: _349  and  _350
REMARK  144  A    between atoms: _349  and  _352
REMARK  145  A    between atoms: _355  and  _357
REMARK  146  A    between atoms: _357  and  _358
REMARK  147  A    between atoms: _357  and  _360
REMARK  148  A    between atoms: _360  and  _361
REMARK  149  A    between atoms: _361  and  _362
REMARK  150  A    between atoms: _364  and  _366
REMARK  151  A    between atoms: _366  and  _367
REMARK  152  A    between atoms: _366  and  _369
REMARK  153  A    between atoms: _372  and  _374
REMARK  154  A    between atoms: _374  and  _375
REMARK  155  A    between atoms: _374  and  _377
REMARK  156  A    between atoms: _377  and  _378
REMARK  157  A    between atoms: _378  and  _379
REMARK  158  A    between atoms: _379  and  _380
REMARK  159  A    between atoms: _389  and  _391
REMARK  160  A    between atoms: _391  and  _392
REMARK  161  A    between atoms: _391  and  _394
REMARK  162  A    between atoms: _394  and  _395
REMARK  163  A    between atoms: _401  and  _403
REMARK  164  A    between atoms: _403  and  _404
REMARK  165  A    between atoms: _406  and  _408
REMARK  166  A    between atoms: _408  and  _409
REMARK  167  A    between atoms: _408  and  _411
REMARK  168  A    between atoms: _414  and  _416
REMARK  169  A    between atoms: _416  and  _417
REMARK  170  A    between atoms: _420  and  _422
REMARK  171  A    between atoms: _422  and  _423
REMARK  172  A    between atoms: _426  and  _428
REMARK  173  A    between atoms: _428  and  _429
REMARK  174  A    between atoms: _431  and  _433
REMARK  175  A    between atoms: _433  and  _434
REMARK  176  A    between atoms: _433  and  _436
REMARK  177  A    between atoms: _436  and  _437
REMARK  178  A    between atoms: _439  and  _441
REMARK  179  A    between atoms: _441  and  _442
REMARK  180  A    between atoms: _445  and  _447
REMARK  181  A    between atoms: _447  and  _448
REMARK  182  A    between atoms: _451  and  _453
REMARK  183  A    between atoms: _453  and  _454
REMARK  184  A    between atoms: _453  and  _456
REMARK  185  A    between atoms: _456  and  _457
REMARK  186  A    between atoms: _460  and  _462
REMARK  187  A    between atoms: _462  and  _463
REMARK  188  A    between atoms: _462  and  _465
REMARK  189  A    between atoms: _465  and  _466
REMARK  190  A    between atoms: _469  and  _471
REMARK  191  A    between atoms: _471  and  _472
REMARK  192  A    between atoms: _471  and  _474
REMARK  193  A    between atoms: _474  and  _475
REMARK  194  A    between atoms: _478  and  _480
REMARK  195  A    between atoms: _480  and  _481
REMARK  196  A    between atoms: _480  and  _483
REMARK  197  A    between atoms: _483  and  _484
REMARK  198  A    between atoms: _487  and  _489
REMARK  199  A    between atoms: _489  and  _490
REMARK  200  A    between atoms: _489  and  _492
REMARK  201  A    between atoms: _492  and  _493
REMARK  202  A    between atoms: _496  and  _498
REMARK  203  A    between atoms: _498  and  _499
REMARK  204  A    between atoms: _498  and  _501
REMARK  205  A    between atoms: _501  and  _502
REMARK  206  A    between atoms: _502  and  _503
REMARK  207  A    between atoms: _506  and  _508
REMARK  208  A    between atoms: _508  and  _509
REMARK  209  A    between atoms: _511  and  _513
REMARK  210  A    between atoms: _513  and  _514
REMARK  211  A    between atoms: _513  and  _516
REMARK  212  A    between atoms: _516  and  _517
REMARK  213  A    between atoms: _517  and  _518
REMARK  214  A    between atoms: _518  and  _519
REMARK  215  A    between atoms: _519  and  _520
REMARK  216  A    between atoms: _524  and  _526
REMARK  217  A    between atoms: _526  and  _527
REMARK  218  A    between atoms: _526  and  _529
REMARK  219  A    between atoms: _529  and  _530
REMARK  220  A    between atoms: _530  and  _531
REMARK  221  A    between atoms: _537  and  _538
REMARK  222  A    between atoms: _543  and  _545
REMARK  223  A    between atoms: _545  and  _546
REMARK  224  A    between atoms: _545  and  _548
REMARK  225  A    between atoms: _548  and  _549
REMARK  226  A    between atoms: _549  and  _550
REMARK                            x       y       z     vdW  Elec       q    Type
REMARK                         _______ _______ _______ _____ _____    ______ ____
ROOT
ATOM      1  O   HOH     1       2.212 -11.474  20.332  0.00  0.00    +0.000 OA
ENDROOT
TORSDOF 0
REMARK  Name = ../refined-set-2016/3umo/3umo_pocket.pdb
REMARK  226 active torsions:
REMARK  status: ('A' for Active; 'I' for Inactive)
REMARK    1  A    between atoms: _1  and  _3
REMARK    2  A    between atoms: _3  and  _4
REMARK    3  A    between atoms: _6  and  _8
REMARK    4  A    between atoms: _8  and  _9
REMARK    5  A    between atoms: _8  and  _11
REMARK    6  A    between atoms: _11  and  _12
REMARK    7  A    between atoms: _17  and  _19
REMARK    8  A    between atoms: _19  and  _20
REMARK    9  A    between atoms: _19  and  _22
REMARK   10  A    between atoms: _22  and  _23
REMARK   11  A    between atoms: _23  and  _24
REMARK   12  A    between atoms: _24  and  _25
REMARK   13  A    between atoms: _34  and  _36
REMARK   14  A    between atoms: _36  and  _37
REMARK   15  A    between atoms: _36  and  _39
REMARK   16  A    between atoms: _39  and  _40
REMARK   17  A    between atoms: _42  and  _44
REMARK   18  A    between atoms: _44  and  _45
REMARK   19  A    between atoms: _44  and  _47
REMARK   20  A    between atoms: _47  and  _48
REMARK   21  A    between atoms: _51  and  _53
REMARK   22  A    between atoms: _53  and  _54
REMARK   23  A    between atoms: _53  and  _56
REMARK   24  A    between atoms: _56  and  _57
REMARK   25  A    between atoms: _59  and  _61
REMARK   26  A    between atoms: _61  and  _62
REMARK   27  A    between atoms: _61  and  _64
REMARK   28  A    between atoms: _64  and  _65
REMARK   29  A    between atoms: _65  and  _66
REMARK   30  A    between atoms: _66  and  _67
REMARK   31  A    between atoms: _67  and  _68
REMARK   32  A    between atoms: _73  and  _74
REMARK   33  A    between atoms: _79  and  _81
REMARK   34  A    between atoms: _81  and  _82
REMARK   35  A    between atoms: _81  and  _84
REMARK   36  A    between atoms: _84  and  _85
REMARK   37  A    between atoms: _90  and  _92
REMARK   38  A    between atoms: _92  and  _93
REMARK   39  A    between atoms: _92  and  _95
REMARK   40  A    between atoms: _95  and  _96
REMARK   41  A    between atoms: _96  and  _97
REMARK   42  A    between atoms: _102  and  _104
REMARK   43  A    between atoms: _104  and  _105
REMARK   44  A    between atoms: _104  and  _107
REMARK   45  A    between atoms: _107  and  _108
REMARK   46  A    between atoms: _108  and  _109
REMARK   47  A    between atoms: _109  and  _110
REMARK   48  A    between atoms: _110  and  _111
REMARK   49  A    between atoms: _115  and  _117
REMARK   50  A    between atoms: _117  and  _118
REMARK   51  A    between atoms: _117  and  _120
REMARK   52  A    between atoms: _120  and  _121
REMARK   53  A    between atoms: _121  and  _122
REMARK   54  A    between atoms: _125  and  _127
REMARK   55  A    between atoms: _127  and  _128
REMARK   56  A    between atoms: _127  and  _130
REMARK   57  A    between atoms: _133  and  _135
REMARK   58  A    between atoms: _135  and  _136
REMARK   59  A    between atoms: _135  and  _138
REMARK   60  A    between atoms: _141  and  _143
REMARK   61  A    between atoms: _143  and  _144
REMARK   62  A    between atoms: _143  and  _146
REMARK   63  A    between atoms: _146  and  _147
REMARK   64  A    between atoms: _149  and  _151
REMARK   65  A    between atoms: _151  and  _152
REMARK   66  A    between atoms: _151  and  _154
REMARK   67  A    between atoms: _154  and  _155
REMARK   68  A    between atoms: _158  and  _160
REMARK   69  A    between atoms: _160  and  _161
REMARK   70  A    between atoms: _164  and  _165
REMARK   71  A    between atoms: _170  and  _172
REMARK   72  A    between atoms: _172  and  _173
REMARK   73  A    between atoms: _172  and  _175
REMARK   74  A    between atoms: _175  and  _176
REMARK   75  A    between atoms: _176  and  _177
REMARK   76  A    between atoms: _182  and  _184
REMARK   77  A    between atoms: _184  and  _185
REMARK   78  A    between atoms: _187  and  _189
REMARK   79  A    between atoms: _189  and  _190
REMARK   80  A    between atoms: _193  and  _195
REMARK   81  A    between atoms: _195  and  _196
REMARK   82  A    between atoms: _195  and  _198
REMARK   83  A    between atoms: _198  and  _199
REMARK   84  A    between atoms: _202  and  _204
REMARK   85  A    between atoms: _204  and  _205
REMARK   86  A    between atoms: _204  and  _207
REMARK   87  A    between atoms: _210  and  _212
REMARK   88  A    between atoms: _212  and  _213
REMARK   89  A    between atoms: _212  and  _215
REMARK   90  A    between atoms: _219  and  _220
REMARK   91  A    between atoms: _226  and  _227
REMARK   92  A    between atoms: _233  and  _234
REMARK   93  A    between atoms: _239  and  _241
REMARK   94  A    between atoms: _241  and  _242
REMARK   95  A    between atoms: _241  and  _244
REMARK   96  A    between atoms: _247  and  _249
REMARK   97  A    between atoms: _249  and  _250
REMARK   98  A    between atoms: _249  and  _252
REMARK   99  A    between atoms: _252  and  _253
REMARK  100  A    between atoms: _253  and  _254
REMARK  101  A    between atoms: _254  and  _255
REMARK  102  A    between atoms: _255  and  _256
REMARK  103  A    between atoms: _260  and  _262
REMARK  104  A    between atoms: _262  and  _263
REMARK  105  A    between atoms: _262  and  _265
REMARK  106  A    between atoms: _265  and  _266
REMARK  107  A    between atoms: _268  and  _270
REMARK  108  A    between atoms: _270  and  _271
REMARK  109  A    between atoms: _270  and  _273
REMARK  110  A    between atoms: _273  and  _274
REMARK  111  A    between atoms: _274  and  _275
REMARK  112  A    between atoms: _280  and  _282
REMARK  113  A    between atoms: _282  and  _283
REMARK  114  A    between atoms: _282  and  _285
REMARK  115  A    between atoms: _285  and  _286
REMARK  116  A    between atoms: _288  and  _290
REMARK  117  A    between atoms: _290  and  _291
REMARK  118  A    between atoms: _290  and  _293
REMARK  119  A    between atoms: _293  and  _294
REMARK  120  A    between atoms: _297  and  _299
REMARK  121  A    between atoms: _299  and  _300
REMARK  122  A    between atoms: _299  and  _302
REMARK  123  A    between atoms: _305  and  _307
REMARK  124  A    between atoms: _307  and  _308
REMARK  125  A    between atoms: _310  and  _312
REMARK  126  A    between atoms: _312  and  _313
REMARK  127  A    between atoms: _316  and  _318
REMARK  128  A    between atoms: _318  and  _319
REMARK  129  A    between atoms: _321  and  _323
REMARK  130  A    between atoms: _323  and  _324
REMARK  131  A    between atoms: _323  and  _326
REMARK  132  A    between atoms: _326  and  _327
REMARK  133  A    between atoms: _330  and  _332
REMARK  134  A    between atoms: _332  and  _333
REMARK  135  A    between atoms: _332  and  _335
REMARK  136  A    between atoms: _335  and  _336
REMARK  137  A    between atoms: _338  and  _340
REMARK  138  A    between atoms: _340  and  _341
REMARK  139  A    between atoms: _340  and  _343
REMARK  140  A    between atoms: _343  and  _344
REMARK  141  A    between atoms: _344  and  _345
REMARK  142  A    between atoms: _347  and  _349
REMARK  143  A    between atoms: _349  and  _350
REMARK  144  A    between atoms: _349  and  _352
REMARK  145  A    between atoms: _355  and  _357
REMARK  146  A    between atoms: _357  and  _358
REMARK  147  A    between atoms: _357  and  _360
REMARK  148  A    between atoms: _360  and  _361
REMARK  149  A    between atoms: _361  and  _362
REMARK  150  A    between atoms: _364  and  _366
REMARK  151  A    between atoms: _366  and  _367
REMARK  152  A    between atoms: _366  and  _369
REMARK  153  A    between atoms: _372  and  _374
REMARK  154  A    between atoms: _374  and  _375
REMARK  155  A    between atoms: _374  and  _377
REMARK  156  A    between atoms: _377  and  _378
REMARK  157  A    between atoms: _378  and  _379
REMARK  158  A    between atoms: _379  and  _380
REMARK  159  A    between atoms: _389  and  _391
REMARK  160  A    between atoms: _391  and  _392
REMARK  161  A    between atoms: _391  and  _394
REMARK  162  A    between atoms: _394  and  _395
REMARK  163  A    between atoms: _401  and  _403
REMARK  164  A    between atoms: _403  and  _404
REMARK  165  A    between atoms: _406  and  _408
REMARK  166  A    between atoms: _408  and  _409
REMARK  167  A    between atoms: _408  and  _411
REMARK  168  A    between atoms: _414  and  _416
REMARK  169  A    between atoms: _416  and  _417
REMARK  170  A    between atoms: _420  and  _422
REMARK  171  A    between atoms: _422  and  _423
REMARK  172  A    between atoms: _426  and  _428
REMARK  173  A    between atoms: _428  and  _429
REMARK  174  A    between atoms: _431  and  _433
REMARK  175  A    between atoms: _433  and  _434
REMARK  176  A    between atoms: _433  and  _436
REMARK  177  A    between atoms: _436  and  _437
REMARK  178  A    between atoms: _439  and  _441
REMARK  179  A    between atoms: _441  and  _442
REMARK  180  A    between atoms: _445  and  _447
REMARK  181  A    between atoms: _447  and  _448
REMARK  182  A    between atoms: _451  and  _453
REMARK  183  A    between atoms: _453  and  _454
REMARK  184  A    between atoms: _453  and  _456
REMARK  185  A    between atoms: _456  and  _457
REMARK  186  A    between atoms: _460  and  _462
REMARK  187  A    between atoms: _462  and  _463
REMARK  188  A    between atoms: _462  and  _465
REMARK  189  A    between atoms: _465  and  _466
REMARK  190  A    between atoms: _469  and  _471
REMARK  191  A    between atoms: _471  and  _472
REMARK  192  A    between atoms: _471  and  _474
REMARK  193  A    between atoms: _474  and  _475
REMARK  194  A    between atoms: _478  and  _480
REMARK  195  A    between atoms: _480  and  _481
REMARK  196  A    between atoms: _480  and  _483
REMARK  197  A    between atoms: _483  and  _484
REMARK  198  A    between atoms: _487  and  _489
REMARK  199  A    between atoms: _489  and  _490
REMARK  200  A    between atoms: _489  and  _492
REMARK  201  A    between atoms: _492  and  _493
REMARK  202  A    between atoms: _496  and  _498
REMARK  203  A    between atoms: _498  and  _499
REMARK  204  A    between atoms: _498  and  _501
REMARK  205  A    between atoms: _501  and  _502
REMARK  206  A    between atoms: _502  and  _503
REMARK  207  A    between atoms: _506  and  _508
REMARK  208  A    between atoms: _508  and  _509
REMARK  209  A    between atoms: _511  and  _513
REMARK  210  A    between atoms: _513  and  _514
REMARK  211  A    between atoms: _513  and  _516
REMARK  212  A    between atoms: _516  and  _517
REMARK  213  A    between atoms: _517  and  _518
REMARK  214  A    between atoms: _518  and  _519
REMARK  215  A    between atoms: _519  and  _520
REMARK  216  A    between atoms: _524  and  _526
REMARK  217  A    between atoms: _526  and  _527
REMARK  218  A    between atoms: _526  and  _529
REMARK  219  A    between atoms: _529  and  _530
REMARK  220  A    between atoms: _530  and  _531
REMARK  221  A    between atoms: _537  and  _538
REMARK  222  A    between atoms: _543  and  _545
REMARK  223  A    between atoms: _545  and  _546
REMARK  224  A    between atoms: _545  and  _548
REMARK  225  A    between atoms: _548  and  _549
REMARK  226  A    between atoms: _549  and  _550
REMARK                            x       y       z     vdW  Elec       q    Type
REMARK                         _______ _______ _______ _____ _____    ______ ____
ROOT
ATOM      1  O   HOH     1       6.997 -11.680  19.173  0.00  0.00    +0.000 OA
ENDROOT
TORSDOF 0
REMARK  Name = ../refined-set-2016/3umo/3umo_pocket.pdb
REMARK  226 active torsions:
REMARK  status: ('A' for Active; 'I' for Inactive)
REMARK    1  A    between atoms: _1  and  _3
REMARK    2  A    between atoms: _3  and  _4
REMARK    3  A    between atoms: _6  and  _8
REMARK    4  A    between atoms: _8  and  _9
REMARK    5  A    between atoms: _8  and  _11
REMARK    6  A    between atoms: _11  and  _12
REMARK    7  A    between atoms: _17  and  _19
REMARK    8  A    between atoms: _19  and  _20
REMARK    9  A    between atoms: _19  and  _22
REMARK   10  A    between atoms: _22  and  _23
REMARK   11  A    between atoms: _23  and  _24
REMARK   12  A    between atoms: _24  and  _25
REMARK   13  A    between atoms: _34  and  _36
REMARK   14  A    between atoms: _36  and  _37
REMARK   15  A    between atoms: _36  and  _39
REMARK   16  A    between atoms: _39  and  _40
REMARK   17  A    between atoms: _42  and  _44
REMARK   18  A    between atoms: _44  and  _45
REMARK   19  A    between atoms: _44  and  _47
REMARK   20  A    between atoms: _47  and  _48
REMARK   21  A    between atoms: _51  and  _53
REMARK   22  A    between atoms: _53  and  _54
REMARK   23  A    between atoms: _53  and  _56
REMARK   24  A    between atoms: _56  and  _57
REMARK   25  A    between atoms: _59  and  _61
REMARK   26  A    between atoms: _61  and  _62
REMARK   27  A    between atoms: _61  and  _64
REMARK   28  A    between atoms: _64  and  _65
REMARK   29  A    between atoms: _65  and  _66
REMARK   30  A    between atoms: _66  and  _67
REMARK   31  A    between atoms: _67  and  _68
REMARK   32  A    between atoms: _73  and  _74
REMARK   33  A    between atoms: _79  and  _81
REMARK   34  A    between atoms: _81  and  _82
REMARK   35  A    between atoms: _81  and  _84
REMARK   36  A    between atoms: _84  and  _85
REMARK   37  A    between atoms: _90  and  _92
REMARK   38  A    between atoms: _92  and  _93
REMARK   39  A    between atoms: _92  and  _95
REMARK   40  A    between atoms: _95  and  _96
REMARK   41  A    between atoms: _96  and  _97
REMARK   42  A    between atoms: _102  and  _104
REMARK   43  A    between atoms: _104  and  _105
REMARK   44  A    between atoms: _104  and  _107
REMARK   45  A    between atoms: _107  and  _108
REMARK   46  A    between atoms: _108  and  _109
REMARK   47  A    between atoms: _109  and  _110
REMARK   48  A    between atoms: _110  and  _111
REMARK   49  A    between atoms: _115  and  _117
REMARK   50  A    between atoms: _117  and  _118
REMARK   51  A    between atoms: _117  and  _120
REMARK   52  A    between atoms: _120  and  _121
REMARK   53  A    between atoms: _121  and  _122
REMARK   54  A    between atoms: _125  and  _127
REMARK   55  A    between atoms: _127  and  _128
REMARK   56  A    between atoms: _127  and  _130
REMARK   57  A    between atoms: _133  and  _135
REMARK   58  A    between atoms: _135  and  _136
REMARK   59  A    between atoms: _135  and  _138
REMARK   60  A    between atoms: _141  and  _143
REMARK   61  A    between atoms: _143  and  _144
REMARK   62  A    between atoms: _143  and  _146
REMARK   63  A    between atoms: _146  and  _147
REMARK   64  A    between atoms: _149  and  _151
REMARK   65  A    between atoms: _151  and  _152
REMARK   66  A    between atoms: _151  and  _154
REMARK   67  A    between atoms: _154  and  _155
REMARK   68  A    between atoms: _158  and  _160
REMARK   69  A    between atoms: _160  and  _161
REMARK   70  A    between atoms: _164  and  _165
REMARK   71  A    between atoms: _170  and  _172
REMARK   72  A    between atoms: _172  and  _173
REMARK   73  A    between atoms: _172  and  _175
REMARK   74  A    between atoms: _175  and  _176
REMARK   75  A    between atoms: _176  and  _177
REMARK   76  A    between atoms: _182  and  _184
REMARK   77  A    between atoms: _184  and  _185
REMARK   78  A    between atoms: _187  and  _189
REMARK   79  A    between atoms: _189  and  _190
REMARK   80  A    between atoms: _193  and  _195
REMARK   81  A    between atoms: _195  and  _196
REMARK   82  A    between atoms: _195  and  _198
REMARK   83  A    between atoms: _198  and  _199
REMARK   84  A    between atoms: _202  and  _204
REMARK   85  A    between atoms: _204  and  _205
REMARK   86  A    between atoms: _204  and  _207
REMARK   87  A    between atoms: _210  and  _212
REMARK   88  A    between atoms: _212  and  _213
REMARK   89  A    between atoms: _212  and  _215
REMARK   90  A    between atoms: _219  and  _220
REMARK   91  A    between atoms: _226  and  _227
REMARK   92  A    between atoms: _233  and  _234
REMARK   93  A    between atoms: _239  and  _241
REMARK   94  A    between atoms: _241  and  _242
REMARK   95  A    between atoms: _241  and  _244
REMARK   96  A    between atoms: _247  and  _249
REMARK   97  A    between atoms: _249  and  _250
REMARK   98  A    between atoms: _249  and  _252
REMARK   99  A    between atoms: _252  and  _253
REMARK  100  A    between atoms: _253  and  _254
REMARK  101  A    between atoms: _254  and  _255
REMARK  102  A    between atoms: _255  and  _256
REMARK  103  A    between atoms: _260  and  _262
REMARK  104  A    between atoms: _262  and  _263
REMARK  105  A    between atoms: _262  and  _265
REMARK  106  A    between atoms: _265  and  _266
REMARK  107  A    between atoms: _268  and  _270
REMARK  108  A    between atoms: _270  and  _271
REMARK  109  A    between atoms: _270  and  _273
REMARK  110  A    between atoms: _273  and  _274
REMARK  111  A    between atoms: _274  and  _275
REMARK  112  A    between atoms: _280  and  _282
REMARK  113  A    between atoms: _282  and  _283
REMARK  114  A    between atoms: _282  and  _285
REMARK  115  A    between atoms: _285  and  _286
REMARK  116  A    between atoms: _288  and  _290
REMARK  117  A    between atoms: _290  and  _291
REMARK  118  A    between atoms: _290  and  _293
REMARK  119  A    between atoms: _293  and  _294
REMARK  120  A    between atoms: _297  and  _299
REMARK  121  A    between atoms: _299  and  _300
REMARK  122  A    between atoms: _299  and  _302
REMARK  123  A    between atoms: _305  and  _307
REMARK  124  A    between atoms: _307  and  _308
REMARK  125  A    between atoms: _310  and  _312
REMARK  126  A    between atoms: _312  and  _313
REMARK  127  A    between atoms: _316  and  _318
REMARK  128  A    between atoms: _318  and  _319
REMARK  129  A    between atoms: _321  and  _323
REMARK  130  A    between atoms: _323  and  _324
REMARK  131  A    between atoms: _323  and  _326
REMARK  132  A    between atoms: _326  and  _327
REMARK  133  A    between atoms: _330  and  _332
REMARK  134  A    between atoms: _332  and  _333
REMARK  135  A    between atoms: _332  and  _335
REMARK  136  A    between atoms: _335  and  _336
REMARK  137  A    between atoms: _338  and  _340
REMARK  138  A    between atoms: _340  and  _341
REMARK  139  A    between atoms: _340  and  _343
REMARK  140  A    between atoms: _343  and  _344
REMARK  141  A    between atoms: _344  and  _345
REMARK  142  A    between atoms: _347  and  _349
REMARK  143  A    between atoms: _349  and  _350
REMARK  144  A    between atoms: _349  and  _352
REMARK  145  A    between atoms: _355  and  _357
REMARK  146  A    between atoms: _357  and  _358
REMARK  147  A    between atoms: _357  and  _360
REMARK  148  A    between atoms: _360  and  _361
REMARK  149  A    between atoms: _361  and  _362
REMARK  150  A    between atoms: _364  and  _366
REMARK  151  A    between atoms: _366  and  _367
REMARK  152  A    between atoms: _366  and  _369
REMARK  153  A    between atoms: _372  and  _374
REMARK  154  A    between atoms: _374  and  _375
REMARK  155  A    between atoms: _374  and  _377
REMARK  156  A    between atoms: _377  and  _378
REMARK  157  A    between atoms: _378  and  _379
REMARK  158  A    between atoms: _379  and  _380
REMARK  159  A    between atoms: _389  and  _391
REMARK  160  A    between atoms: _391  and  _392
REMARK  161  A    between atoms: _391  and  _394
REMARK  162  A    between atoms: _394  and  _395
REMARK  163  A    between atoms: _401  and  _403
REMARK  164  A    between atoms: _403  and  _404
REMARK  165  A    between atoms: _406  and  _408
REMARK  166  A    between atoms: _408  and  _409
REMARK  167  A    between atoms: _408  and  _411
REMARK  168  A    between atoms: _414  and  _416
REMARK  169  A    between atoms: _416  and  _417
REMARK  170  A    between atoms: _420  and  _422
REMARK  171  A    between atoms: _422  and  _423
REMARK  172  A    between atoms: _426  and  _428
REMARK  173  A    between atoms: _428  and  _429
REMARK  174  A    between atoms: _431  and  _433
REMARK  175  A    between atoms: _433  and  _434
REMARK  176  A    between atoms: _433  and  _436
REMARK  177  A    between atoms: _436  and  _437
REMARK  178  A    between atoms: _439  and  _441
REMARK  179  A    between atoms: _441  and  _442
REMARK  180  A    between atoms: _445  and  _447
REMARK  181  A    between atoms: _447  and  _448
REMARK  182  A    between atoms: _451  and  _453
REMARK  183  A    between atoms: _453  and  _454
REMARK  184  A    between atoms: _453  and  _456
REMARK  185  A    between atoms: _456  and  _457
REMARK  186  A    between atoms: _460  and  _462
REMARK  187  A    between atoms: _462  and  _463
REMARK  188  A    between atoms: _462  and  _465
REMARK  189  A    between atoms: _465  and  _466
REMARK  190  A    between atoms: _469  and  _471
REMARK  191  A    between atoms: _471  and  _472
REMARK  192  A    between atoms: _471  and  _474
REMARK  193  A    between atoms: _474  and  _475
REMARK  194  A    between atoms: _478  and  _480
REMARK  195  A    between atoms: _480  and  _481
REMARK  196  A    between atoms: _480  and  _483
REMARK  197  A    between atoms: _483  and  _484
REMARK  198  A    between atoms: _487  and  _489
REMARK  199  A    between atoms: _489  and  _490
REMARK  200  A    between atoms: _489  and  _492
REMARK  201  A    between atoms: _492  and  _493
REMARK  202  A    between atoms: _496  and  _498
REMARK  203  A    between atoms: _498  and  _499
REMARK  204  A    between atoms: _498  and  _501
REMARK  205  A    between atoms: _501  and  _502
REMARK  206  A    between atoms: _502  and  _503
REMARK  207  A    between atoms: _506  and  _508
REMARK  208  A    between atoms: _508  and  _509
REMARK  209  A    between atoms: _511  and  _513
REMARK  210  A    between atoms: _513  and  _514
REMARK  211  A    between atoms: _513  and  _516
REMARK  212  A    between atoms: _516  and  _517
REMARK  213  A    between atoms: _517  and  _518
REMARK  214  A    between atoms: _518  and  _519
REMARK  215  A    between atoms: _519  and  _520
REMARK  216  A    between atoms: _524  and  _526
REMARK  217  A    between atoms: _526  and  _527
REMARK  218  A    between atoms: _526  and  _529
REMARK  219  A    between atoms: _529  and  _530
REMARK  220  A    between atoms: _530  and  _531
REMARK  221  A    between atoms: _537  and  _538
REMARK  222  A    between atoms: _543  and  _545
REMARK  223  A    between atoms: _545  and  _546
REMARK  224  A    between atoms: _545  and  _548
REMARK  225  A    between atoms: _548  and  _549
REMARK  226  A    between atoms: _549  and  _550
REMARK                            x       y       z     vdW  Elec       q    Type
REMARK                         _______ _______ _______ _____ _____    ______ ____
ROOT
ATOM      1  O   HOH     1       7.828 -12.000  22.121  0.00  0.00    +0.000 OA
ENDROOT
TORSDOF 0
REMARK  Name = ../refined-set-2016/3umo/3umo_pocket.pdb
REMARK  226 active torsions:
REMARK  status: ('A' for Active; 'I' for Inactive)
REMARK    1  A    between atoms: _1  and  _3
REMARK    2  A    between atoms: _3  and  _4
REMARK    3  A    between atoms: _6  and  _8
REMARK    4  A    between atoms: _8  and  _9
REMARK    5  A    between atoms: _8  and  _11
REMARK    6  A    between atoms: _11  and  _12
REMARK    7  A    between atoms: _17  and  _19
REMARK    8  A    between atoms: _19  and  _20
REMARK    9  A    between atoms: _19  and  _22
REMARK   10  A    between atoms: _22  and  _23
REMARK   11  A    between atoms: _23  and  _24
REMARK   12  A    between atoms: _24  and  _25
REMARK   13  A    between atoms: _34  and  _36
REMARK   14  A    between atoms: _36  and  _37
REMARK   15  A    between atoms: _36  and  _39
REMARK   16  A    between atoms: _39  and  _40
REMARK   17  A    between atoms: _42  and  _44
REMARK   18  A    between atoms: _44  and  _45
REMARK   19  A    between atoms: _44  and  _47
REMARK   20  A    between atoms: _47  and  _48
REMARK   21  A    between atoms: _51  and  _53
REMARK   22  A    between atoms: _53  and  _54
REMARK   23  A    between atoms: _53  and  _56
REMARK   24  A    between atoms: _56  and  _57
REMARK   25  A    between atoms: _59  and  _61
REMARK   26  A    between atoms: _61  and  _62
REMARK   27  A    between atoms: _61  and  _64
REMARK   28  A    between atoms: _64  and  _65
REMARK   29  A    between atoms: _65  and  _66
REMARK   30  A    between atoms: _66  and  _67
REMARK   31  A    between atoms: _67  and  _68
REMARK   32  A    between atoms: _73  and  _74
REMARK   33  A    between atoms: _79  and  _81
REMARK   34  A    between atoms: _81  and  _82
REMARK   35  A    between atoms: _81  and  _84
REMARK   36  A    between atoms: _84  and  _85
REMARK   37  A    between atoms: _90  and  _92
REMARK   38  A    between atoms: _92  and  _93
REMARK   39  A    between atoms: _92  and  _95
REMARK   40  A    between atoms: _95  and  _96
REMARK   41  A    between atoms: _96  and  _97
REMARK   42  A    between atoms: _102  and  _104
REMARK   43  A    between atoms: _104  and  _105
REMARK   44  A    between atoms: _104  and  _107
REMARK   45  A    between atoms: _107  and  _108
REMARK   46  A    between atoms: _108  and  _109
REMARK   47  A    between atoms: _109  and  _110
REMARK   48  A    between atoms: _110  and  _111
REMARK   49  A    between atoms: _115  and  _117
REMARK   50  A    between atoms: _117  and  _118
REMARK   51  A    between atoms: _117  and  _120
REMARK   52  A    between atoms: _120  and  _121
REMARK   53  A    between atoms: _121  and  _122
REMARK   54  A    between atoms: _125  and  _127
REMARK   55  A    between atoms: _127  and  _128
REMARK   56  A    between atoms: _127  and  _130
REMARK   57  A    between atoms: _133  and  _135
REMARK   58  A    between atoms: _135  and  _136
REMARK   59  A    between atoms: _135  and  _138
REMARK   60  A    between atoms: _141  and  _143
REMARK   61  A    between atoms: _143  and  _144
REMARK   62  A    between atoms: _143  and  _146
REMARK   63  A    between atoms: _146  and  _147
REMARK   64  A    between atoms: _149  and  _151
REMARK   65  A    between atoms: _151  and  _152
REMARK   66  A    between atoms: _151  and  _154
REMARK   67  A    between atoms: _154  and  _155
REMARK   68  A    between atoms: _158  and  _160
REMARK   69  A    between atoms: _160  and  _161
REMARK   70  A    between atoms: _164  and  _165
REMARK   71  A    between atoms: _170  and  _172
REMARK   72  A    between atoms: _172  and  _173
REMARK   73  A    between atoms: _172  and  _175
REMARK   74  A    between atoms: _175  and  _176
REMARK   75  A    between atoms: _176  and  _177
REMARK   76  A    between atoms: _182  and  _184
REMARK   77  A    between atoms: _184  and  _185
REMARK   78  A    between atoms: _187  and  _189
REMARK   79  A    between atoms: _189  and  _190
REMARK   80  A    between atoms: _193  and  _195
REMARK   81  A    between atoms: _195  and  _196
REMARK   82  A    between atoms: _195  and  _198
REMARK   83  A    between atoms: _198  and  _199
REMARK   84  A    between atoms: _202  and  _204
REMARK   85  A    between atoms: _204  and  _205
REMARK   86  A    between atoms: _204  and  _207
REMARK   87  A    between atoms: _210  and  _212
REMARK   88  A    between atoms: _212  and  _213
REMARK   89  A    between atoms: _212  and  _215
REMARK   90  A    between atoms: _219  and  _220
REMARK   91  A    between atoms: _226  and  _227
REMARK   92  A    between atoms: _233  and  _234
REMARK   93  A    between atoms: _239  and  _241
REMARK   94  A    between atoms: _241  and  _242
REMARK   95  A    between atoms: _241  and  _244
REMARK   96  A    between atoms: _247  and  _249
REMARK   97  A    between atoms: _249  and  _250
REMARK   98  A    between atoms: _249  and  _252
REMARK   99  A    between atoms: _252  and  _253
REMARK  100  A    between atoms: _253  and  _254
REMARK  101  A    between atoms: _254  and  _255
REMARK  102  A    between atoms: _255  and  _256
REMARK  103  A    between atoms: _260  and  _262
REMARK  104  A    between atoms: _262  and  _263
REMARK  105  A    between atoms: _262  and  _265
REMARK  106  A    between atoms: _265  and  _266
REMARK  107  A    between atoms: _268  and  _270
REMARK  108  A    between atoms: _270  and  _271
REMARK  109  A    between atoms: _270  and  _273
REMARK  110  A    between atoms: _273  and  _274
REMARK  111  A    between atoms: _274  and  _275
REMARK  112  A    between atoms: _280  and  _282
REMARK  113  A    between atoms: _282  and  _283
REMARK  114  A    between atoms: _282  and  _285
REMARK  115  A    between atoms: _285  and  _286
REMARK  116  A    between atoms: _288  and  _290
REMARK  117  A    between atoms: _290  and  _291
REMARK  118  A    between atoms: _290  and  _293
REMARK  119  A    between atoms: _293  and  _294
REMARK  120  A    between atoms: _297  and  _299
REMARK  121  A    between atoms: _299  and  _300
REMARK  122  A    between atoms: _299  and  _302
REMARK  123  A    between atoms: _305  and  _307
REMARK  124  A    between atoms: _307  and  _308
REMARK  125  A    between atoms: _310  and  _312
REMARK  126  A    between atoms: _312  and  _313
REMARK  127  A    between atoms: _316  and  _318
REMARK  128  A    between atoms: _318  and  _319
REMARK  129  A    between atoms: _321  and  _323
REMARK  130  A    between atoms: _323  and  _324
REMARK  131  A    between atoms: _323  and  _326
REMARK  132  A    between atoms: _326  and  _327
REMARK  133  A    between atoms: _330  and  _332
REMARK  134  A    between atoms: _332  and  _333
REMARK  135  A    between atoms: _332  and  _335
REMARK  136  A    between atoms: _335  and  _336
REMARK  137  A    between atoms: _338  and  _340
REMARK  138  A    between atoms: _340  and  _341
REMARK  139  A    between atoms: _340  and  _343
REMARK  140  A    between atoms: _343  and  _344
REMARK  141  A    between atoms: _344  and  _345
REMARK  142  A    between atoms: _347  and  _349
REMARK  143  A    between atoms: _349  and  _350
REMARK  144  A    between atoms: _349  and  _352
REMARK  145  A    between atoms: _355  and  _357
REMARK  146  A    between atoms: _357  and  _358
REMARK  147  A    between atoms: _357  and  _360
REMARK  148  A    between atoms: _360  and  _361
REMARK  149  A    between atoms: _361  and  _362
REMARK  150  A    between atoms: _364  and  _366
REMARK  151  A    between atoms: _366  and  _367
REMARK  152  A    between atoms: _366  and  _369
REMARK  153  A    between atoms: _372  and  _374
REMARK  154  A    between atoms: _374  and  _375
REMARK  155  A    between atoms: _374  and  _377
REMARK  156  A    between atoms: _377  and  _378
REMARK  157  A    between atoms: _378  and  _379
REMARK  158  A    between atoms: _379  and  _380
REMARK  159  A    between atoms: _389  and  _391
REMARK  160  A    between atoms: _391  and  _392
REMARK  161  A    between atoms: _391  and  _394
REMARK  162  A    between atoms: _394  and  _395
REMARK  163  A    between atoms: _401  and  _403
REMARK  164  A    between atoms: _403  and  _404
REMARK  165  A    between atoms: _406  and  _408
REMARK  166  A    between atoms: _408  and  _409
REMARK  167  A    between atoms: _408  and  _411
REMARK  168  A    between atoms: _414  and  _416
REMARK  169  A    between atoms: _416  and  _417
REMARK  170  A    between atoms: _420  and  _422
REMARK  171  A    between atoms: _422  and  _423
REMARK  172  A    between atoms: _426  and  _428
REMARK  173  A    between atoms: _428  and  _429
REMARK  174  A    between atoms: _431  and  _433
REMARK  175  A    between atoms: _433  and  _434
REMARK  176  A    between atoms: _433  and  _436
REMARK  177  A    between atoms: _436  and  _437
REMARK  178  A    between atoms: _439  and  _441
REMARK  179  A    between atoms: _441  and  _442
REMARK  180  A    between atoms: _445  and  _447
REMARK  181  A    between atoms: _447  and  _448
REMARK  182  A    between atoms: _451  and  _453
REMARK  183  A    between atoms: _453  and  _454
REMARK  184  A    between atoms: _453  and  _456
REMARK  185  A    between atoms: _456  and  _457
REMARK  186  A    between atoms: _460  and  _462
REMARK  187  A    between atoms: _462  and  _463
REMARK  188  A    between atoms: _462  and  _465
REMARK  189  A    between atoms: _465  and  _466
REMARK  190  A    between atoms: _469  and  _471
REMARK  191  A    between atoms: _471  and  _472
REMARK  192  A    between atoms: _471  and  _474
REMARK  193  A    between atoms: _474  and  _475
REMARK  194  A    between atoms: _478  and  _480
REMARK  195  A    between atoms: _480  and  _481
REMARK  196  A    between atoms: _480  and  _483
REMARK  197  A    between atoms: _483  and  _484
REMARK  198  A    between atoms: _487  and  _489
REMARK  199  A    between atoms: _489  and  _490
REMARK  200  A    between atoms: _489  and  _492
REMARK  201  A    between atoms: _492  and  _493
REMARK  202  A    between atoms: _496  and  _498
REMARK  203  A    between atoms: _498  and  _499
REMARK  204  A    between atoms: _498  and  _501
REMARK  205  A    between atoms: _501  and  _502
REMARK  206  A    between atoms: _502  and  _503
REMARK  207  A    between atoms: _506  and  _508
REMARK  208  A    between atoms: _508  and  _509
REMARK  209  A    between atoms: _511  and  _513
REMARK  210  A    between atoms: _513  and  _514
REMARK  211  A    between atoms: _513  and  _516
REMARK  212  A    between atoms: _516  and  _517
REMARK  213  A    between atoms: _517  and  _518
REMARK  214  A    between atoms: _518  and  _519
REMARK  215  A    between atoms: _519  and  _520
REMARK  216  A    between atoms: _524  and  _526
REMARK  217  A    between atoms: _526  and  _527
REMARK  218  A    between atoms: _526  and  _529
REMARK  219  A    between atoms: _529  and  _530
REMARK  220  A    between atoms: _530  and  _531
REMARK  221  A    between atoms: _537  and  _538
REMARK  222  A    between atoms: _543  and  _545
REMARK  223  A    between atoms: _545  and  _546
REMARK  224  A    between atoms: _545  and  _548
REMARK  225  A    between atoms: _548  and  _549
REMARK  226  A    between atoms: _549  and  _550
REMARK                            x       y       z     vdW  Elec       q    Type
REMARK                         _______ _______ _______ _____ _____    ______ ____
ROOT
ATOM      1  O   HOH     1      -0.268 -24.552   8.011  0.00  0.00    +0.000 OA
ENDROOT
TORSDOF 0
REMARK  Name = ../refined-set-2016/3umo/3umo_pocket.pdb
REMARK  226 active torsions:
REMARK  status: ('A' for Active; 'I' for Inactive)
REMARK    1  A    between atoms: _1  and  _3
REMARK    2  A    between atoms: _3  and  _4
REMARK    3  A    between atoms: _6  and  _8
REMARK    4  A    between atoms: _8  and  _9
REMARK    5  A    between atoms: _8  and  _11
REMARK    6  A    between atoms: _11  and  _12
REMARK    7  A    between atoms: _17  and  _19
REMARK    8  A    between atoms: _19  and  _20
REMARK    9  A    between atoms: _19  and  _22
REMARK   10  A    between atoms: _22  and  _23
REMARK   11  A    between atoms: _23  and  _24
REMARK   12  A    between atoms: _24  and  _25
REMARK   13  A    between atoms: _34  and  _36
REMARK   14  A    between atoms: _36  and  _37
REMARK   15  A    between atoms: _36  and  _39
REMARK   16  A    between atoms: _39  and  _40
REMARK   17  A    between atoms: _42  and  _44
REMARK   18  A    between atoms: _44  and  _45
REMARK   19  A    between atoms: _44  and  _47
REMARK   20  A    between atoms: _47  and  _48
REMARK   21  A    between atoms: _51  and  _53
REMARK   22  A    between atoms: _53  and  _54
REMARK   23  A    between atoms: _53  and  _56
REMARK   24  A    between atoms: _56  and  _57
REMARK   25  A    between atoms: _59  and  _61
REMARK   26  A    between atoms: _61  and  _62
REMARK   27  A    between atoms: _61  and  _64
REMARK   28  A    between atoms: _64  and  _65
REMARK   29  A    between atoms: _65  and  _66
REMARK   30  A    between atoms: _66  and  _67
REMARK   31  A    between atoms: _67  and  _68
REMARK   32  A    between atoms: _73  and  _74
REMARK   33  A    between atoms: _79  and  _81
REMARK   34  A    between atoms: _81  and  _82
REMARK   35  A    between atoms: _81  and  _84
REMARK   36  A    between atoms: _84  and  _85
REMARK   37  A    between atoms: _90  and  _92
REMARK   38  A    between atoms: _92  and  _93
REMARK   39  A    between atoms: _92  and  _95
REMARK   40  A    between atoms: _95  and  _96
REMARK   41  A    between atoms: _96  and  _97
REMARK   42  A    between atoms: _102  and  _104
REMARK   43  A    between atoms: _104  and  _105
REMARK   44  A    between atoms: _104  and  _107
REMARK   45  A    between atoms: _107  and  _108
REMARK   46  A    between atoms: _108  and  _109
REMARK   47  A    between atoms: _109  and  _110
REMARK   48  A    between atoms: _110  and  _111
REMARK   49  A    between atoms: _115  and  _117
REMARK   50  A    between atoms: _117  and  _118
REMARK   51  A    between atoms: _117  and  _120
REMARK   52  A    between atoms: _120  and  _121
REMARK   53  A    between atoms: _121  and  _122
REMARK   54  A    between atoms: _125  and  _127
REMARK   55  A    between atoms: _127  and  _128
REMARK   56  A    between atoms: _127  and  _130
REMARK   57  A    between atoms: _133  and  _135
REMARK   58  A    between atoms: _135  and  _136
REMARK   59  A    between atoms: _135  and  _138
REMARK   60  A    between atoms: _141  and  _143
REMARK   61  A    between atoms: _143  and  _144
REMARK   62  A    between atoms: _143  and  _146
REMARK   63  A    between atoms: _146  and  _147
REMARK   64  A    between atoms: _149  and  _151
REMARK   65  A    between atoms: _151  and  _152
REMARK   66  A    between atoms: _151  and  _154
REMARK   67  A    between atoms: _154  and  _155
REMARK   68  A    between atoms: _158  and  _160
REMARK   69  A    between atoms: _160  and  _161
REMARK   70  A    between atoms: _164  and  _165
REMARK   71  A    between atoms: _170  and  _172
REMARK   72  A    between atoms: _172  and  _173
REMARK   73  A    between atoms: _172  and  _175
REMARK   74  A    between atoms: _175  and  _176
REMARK   75  A    between atoms: _176  and  _177
REMARK   76  A    between atoms: _182  and  _184
REMARK   77  A    between atoms: _184  and  _185
REMARK   78  A    between atoms: _187  and  _189
REMARK   79  A    between atoms: _189  and  _190
REMARK   80  A    between atoms: _193  and  _195
REMARK   81  A    between atoms: _195  and  _196
REMARK   82  A    between atoms: _195  and  _198
REMARK   83  A    between atoms: _198  and  _199
REMARK   84  A    between atoms: _202  and  _204
REMARK   85  A    between atoms: _204  and  _205
REMARK   86  A    between atoms: _204  and  _207
REMARK   87  A    between atoms: _210  and  _212
REMARK   88  A    between atoms: _212  and  _213
REMARK   89  A    between atoms: _212  and  _215
REMARK   90  A    between atoms: _219  and  _220
REMARK   91  A    between atoms: _226  and  _227
REMARK   92  A    between atoms: _233  and  _234
REMARK   93  A    between atoms: _239  and  _241
REMARK   94  A    between atoms: _241  and  _242
REMARK   95  A    between atoms: _241  and  _244
REMARK   96  A    between atoms: _247  and  _249
REMARK   97  A    between atoms: _249  and  _250
REMARK   98  A    between atoms: _249  and  _252
REMARK   99  A    between atoms: _252  and  _253
REMARK  100  A    between atoms: _253  and  _254
REMARK  101  A    between atoms: _254  and  _255
REMARK  102  A    between atoms: _255  and  _256
REMARK  103  A    between atoms: _260  and  _262
REMARK  104  A    between atoms: _262  and  _263
REMARK  105  A    between atoms: _262  and  _265
REMARK  106  A    between atoms: _265  and  _266
REMARK  107  A    between atoms: _268  and  _270
REMARK  108  A    between atoms: _270  and  _271
REMARK  109  A    between atoms: _270  and  _273
REMARK  110  A    between atoms: _273  and  _274
REMARK  111  A    between atoms: _274  and  _275
REMARK  112  A    between atoms: _280  and  _282
REMARK  113  A    between atoms: _282  and  _283
REMARK  114  A    between atoms: _282  and  _285
REMARK  115  A    between atoms: _285  and  _286
REMARK  116  A    between atoms: _288  and  _290
REMARK  117  A    between atoms: _290  and  _291
REMARK  118  A    between atoms: _290  and  _293
REMARK  119  A    between atoms: _293  and  _294
REMARK  120  A    between atoms: _297  and  _299
REMARK  121  A    between atoms: _299  and  _300
REMARK  122  A    between atoms: _299  and  _302
REMARK  123  A    between atoms: _305  and  _307
REMARK  124  A    between atoms: _307  and  _308
REMARK  125  A    between atoms: _310  and  _312
REMARK  126  A    between atoms: _312  and  _313
REMARK  127  A    between atoms: _316  and  _318
REMARK  128  A    between atoms: _318  and  _319
REMARK  129  A    between atoms: _321  and  _323
REMARK  130  A    between atoms: _323  and  _324
REMARK  131  A    between atoms: _323  and  _326
REMARK  132  A    between atoms: _326  and  _327
REMARK  133  A    between atoms: _330  and  _332
REMARK  134  A    between atoms: _332  and  _333
REMARK  135  A    between atoms: _332  and  _335
REMARK  136  A    between atoms: _335  and  _336
REMARK  137  A    between atoms: _338  and  _340
REMARK  138  A    between atoms: _340  and  _341
REMARK  139  A    between atoms: _340  and  _343
REMARK  140  A    between atoms: _343  and  _344
REMARK  141  A    between atoms: _344  and  _345
REMARK  142  A    between atoms: _347  and  _349
REMARK  143  A    between atoms: _349  and  _350
REMARK  144  A    between atoms: _349  and  _352
REMARK  145  A    between atoms: _355  and  _357
REMARK  146  A    between atoms: _357  and  _358
REMARK  147  A    between atoms: _357  and  _360
REMARK  148  A    between atoms: _360  and  _361
REMARK  149  A    between atoms: _361  and  _362
REMARK  150  A    between atoms: _364  and  _366
REMARK  151  A    between atoms: _366  and  _367
REMARK  152  A    between atoms: _366  and  _369
REMARK  153  A    between atoms: _372  and  _374
REMARK  154  A    between atoms: _374  and  _375
REMARK  155  A    between atoms: _374  and  _377
REMARK  156  A    between atoms: _377  and  _378
REMARK  157  A    between atoms: _378  and  _379
REMARK  158  A    between atoms: _379  and  _380
REMARK  159  A    between atoms: _389  and  _391
REMARK  160  A    between atoms: _391  and  _392
REMARK  161  A    between atoms: _391  and  _394
REMARK  162  A    between atoms: _394  and  _395
REMARK  163  A    between atoms: _401  and  _403
REMARK  164  A    between atoms: _403  and  _404
REMARK  165  A    between atoms: _406  and  _408
REMARK  166  A    between atoms: _408  and  _409
REMARK  167  A    between atoms: _408  and  _411
REMARK  168  A    between atoms: _414  and  _416
REMARK  169  A    between atoms: _416  and  _417
REMARK  170  A    between atoms: _420  and  _422
REMARK  171  A    between atoms: _422  and  _423
REMARK  172  A    between atoms: _426  and  _428
REMARK  173  A    between atoms: _428  and  _429
REMARK  174  A    between atoms: _431  and  _433
REMARK  175  A    between atoms: _433  and  _434
REMARK  176  A    between atoms: _433  and  _436
REMARK  177  A    between atoms: _436  and  _437
REMARK  178  A    between atoms: _439  and  _441
REMARK  179  A    between atoms: _441  and  _442
REMARK  180  A    between atoms: _445  and  _447
REMARK  181  A    between atoms: _447  and  _448
REMARK  182  A    between atoms: _451  and  _453
REMARK  183  A    between atoms: _453  and  _454
REMARK  184  A    between atoms: _453  and  _456
REMARK  185  A    between atoms: _456  and  _457
REMARK  186  A    between atoms: _460  and  _462
REMARK  187  A    between atoms: _462  and  _463
REMARK  188  A    between atoms: _462  and  _465
REMARK  189  A    between atoms: _465  and  _466
REMARK  190  A    between atoms: _469  and  _471
REMARK  191  A    between atoms: _471  and  _472
REMARK  192  A    between atoms: _471  and  _474
REMARK  193  A    between atoms: _474  and  _475
REMARK  194  A    between atoms: _478  and  _480
REMARK  195  A    between atoms: _480  and  _481
REMARK  196  A    between atoms: _480  and  _483
REMARK  197  A    between atoms: _483  and  _484
REMARK  198  A    between atoms: _487  and  _489
REMARK  199  A    between atoms: _489  and  _490
REMARK  200  A    between atoms: _489  and  _492
REMARK  201  A    between atoms: _492  and  _493
REMARK  202  A    between atoms: _496  and  _498
REMARK  203  A    between atoms: _498  and  _499
REMARK  204  A    between atoms: _498  and  _501
REMARK  205  A    between atoms: _501  and  _502
REMARK  206  A    between atoms: _502  and  _503
REMARK  207  A    between atoms: _506  and  _508
REMARK  208  A    between atoms: _508  and  _509
REMARK  209  A    between atoms: _511  and  _513
REMARK  210  A    between atoms: _513  and  _514
REMARK  211  A    between atoms: _513  and  _516
REMARK  212  A    between atoms: _516  and  _517
REMARK  213  A    between atoms: _517  and  _518
REMARK  214  A    between atoms: _518  and  _519
REMARK  215  A    between atoms: _519  and  _520
REMARK  216  A    between atoms: _524  and  _526
REMARK  217  A    between atoms: _526  and  _527
REMARK  218  A    between atoms: _526  and  _529
REMARK  219  A    between atoms: _529  and  _530
REMARK  220  A    between atoms: _530  and  _531
REMARK  221  A    between atoms: _537  and  _538
REMARK  222  A    between atoms: _543  and  _545
REMARK  223  A    between atoms: _545  and  _546
REMARK  224  A    between atoms: _545  and  _548
REMARK  225  A    between atoms: _548  and  _549
REMARK  226  A    between atoms: _549  and  _550
REMARK                            x       y       z     vdW  Elec       q    Type
REMARK                         _______ _______ _______ _____ _____    ______ ____
ROOT
ATOM      1  O   HOH     1      14.540 -15.478  19.947  0.00  0.00    +0.000 OA
ENDROOT
TORSDOF 0
REMARK  Name = ../refined-set-2016/3umo/3umo_pocket.pdb
REMARK  226 active torsions:
REMARK  status: ('A' for Active; 'I' for Inactive)
REMARK    1  A    between atoms: _1  and  _3
REMARK    2  A    between atoms: _3  and  _4
REMARK    3  A    between atoms: _6  and  _8
REMARK    4  A    between atoms: _8  and  _9
REMARK    5  A    between atoms: _8  and  _11
REMARK    6  A    between atoms: _11  and  _12
REMARK    7  A    between atoms: _17  and  _19
REMARK    8  A    between atoms: _19  and  _20
REMARK    9  A    between atoms: _19  and  _22
REMARK   10  A    between atoms: _22  and  _23
REMARK   11  A    between atoms: _23  and  _24
REMARK   12  A    between atoms: _24  and  _25
REMARK   13  A    between atoms: _34  and  _36
REMARK   14  A    between atoms: _36  and  _37
REMARK   15  A    between atoms: _36  and  _39
REMARK   16  A    between atoms: _39  and  _40
REMARK   17  A    between atoms: _42  and  _44
REMARK   18  A    between atoms: _44  and  _45
REMARK   19  A    between atoms: _44  and  _47
REMARK   20  A    between atoms: _47  and  _48
REMARK   21  A    between atoms: _51  and  _53
REMARK   22  A    between atoms: _53  and  _54
REMARK   23  A    between atoms: _53  and  _56
REMARK   24  A    between atoms: _56  and  _57
REMARK   25  A    between atoms: _59  and  _61
REMARK   26  A    between atoms: _61  and  _62
REMARK   27  A    between atoms: _61  and  _64
REMARK   28  A    between atoms: _64  and  _65
REMARK   29  A    between atoms: _65  and  _66
REMARK   30  A    between atoms: _66  and  _67
REMARK   31  A    between atoms: _67  and  _68
REMARK   32  A    between atoms: _73  and  _74
REMARK   33  A    between atoms: _79  and  _81
REMARK   34  A    between atoms: _81  and  _82
REMARK   35  A    between atoms: _81  and  _84
REMARK   36  A    between atoms: _84  and  _85
REMARK   37  A    between atoms: _90  and  _92
REMARK   38  A    between atoms: _92  and  _93
REMARK   39  A    between atoms: _92  and  _95
REMARK   40  A    between atoms: _95  and  _96
REMARK   41  A    between atoms: _96  and  _97
REMARK   42  A    between atoms: _102  and  _104
REMARK   43  A    between atoms: _104  and  _105
REMARK   44  A    between atoms: _104  and  _107
REMARK   45  A    between atoms: _107  and  _108
REMARK   46  A    between atoms: _108  and  _109
REMARK   47  A    between atoms: _109  and  _110
REMARK   48  A    between atoms: _110  and  _111
REMARK   49  A    between atoms: _115  and  _117
REMARK   50  A    between atoms: _117  and  _118
REMARK   51  A    between atoms: _117  and  _120
REMARK   52  A    between atoms: _120  and  _121
REMARK   53  A    between atoms: _121  and  _122
REMARK   54  A    between atoms: _125  and  _127
REMARK   55  A    between atoms: _127  and  _128
REMARK   56  A    between atoms: _127  and  _130
REMARK   57  A    between atoms: _133  and  _135
REMARK   58  A    between atoms: _135  and  _136
REMARK   59  A    between atoms: _135  and  _138
REMARK   60  A    between atoms: _141  and  _143
REMARK   61  A    between atoms: _143  and  _144
REMARK   62  A    between atoms: _143  and  _146
REMARK   63  A    between atoms: _146  and  _147
REMARK   64  A    between atoms: _149  and  _151
REMARK   65  A    between atoms: _151  and  _152
REMARK   66  A    between atoms: _151  and  _154
REMARK   67  A    between atoms: _154  and  _155
REMARK   68  A    between atoms: _158  and  _160
REMARK   69  A    between atoms: _160  and  _161
REMARK   70  A    between atoms: _164  and  _165
REMARK   71  A    between atoms: _170  and  _172
REMARK   72  A    between atoms: _172  and  _173
REMARK   73  A    between atoms: _172  and  _175
REMARK   74  A    between atoms: _175  and  _176
REMARK   75  A    between atoms: _176  and  _177
REMARK   76  A    between atoms: _182  and  _184
REMARK   77  A    between atoms: _184  and  _185
REMARK   78  A    between atoms: _187  and  _189
REMARK   79  A    between atoms: _189  and  _190
REMARK   80  A    between atoms: _193  and  _195
REMARK   81  A    between atoms: _195  and  _196
REMARK   82  A    between atoms: _195  and  _198
REMARK   83  A    between atoms: _198  and  _199
REMARK   84  A    between atoms: _202  and  _204
REMARK   85  A    between atoms: _204  and  _205
REMARK   86  A    between atoms: _204  and  _207
REMARK   87  A    between atoms: _210  and  _212
REMARK   88  A    between atoms: _212  and  _213
REMARK   89  A    between atoms: _212  and  _215
REMARK   90  A    between atoms: _219  and  _220
REMARK   91  A    between atoms: _226  and  _227
REMARK   92  A    between atoms: _233  and  _234
REMARK   93  A    between atoms: _239  and  _241
REMARK   94  A    between atoms: _241  and  _242
REMARK   95  A    between atoms: _241  and  _244
REMARK   96  A    between atoms: _247  and  _249
REMARK   97  A    between atoms: _249  and  _250
REMARK   98  A    between atoms: _249  and  _252
REMARK   99  A    between atoms: _252  and  _253
REMARK  100  A    between atoms: _253  and  _254
REMARK  101  A    between atoms: _254  and  _255
REMARK  102  A    between atoms: _255  and  _256
REMARK  103  A    between atoms: _260  and  _262
REMARK  104  A    between atoms: _262  and  _263
REMARK  105  A    between atoms: _262  and  _265
REMARK  106  A    between atoms: _265  and  _266
REMARK  107  A    between atoms: _268  and  _270
REMARK  108  A    between atoms: _270  and  _271
REMARK  109  A    between atoms: _270  and  _273
REMARK  110  A    between atoms: _273  and  _274
REMARK  111  A    between atoms: _274  and  _275
REMARK  112  A    between atoms: _280  and  _282
REMARK  113  A    between atoms: _282  and  _283
REMARK  114  A    between atoms: _282  and  _285
REMARK  115  A    between atoms: _285  and  _286
REMARK  116  A    between atoms: _288  and  _290
REMARK  117  A    between atoms: _290  and  _291
REMARK  118  A    between atoms: _290  and  _293
REMARK  119  A    between atoms: _293  and  _294
REMARK  120  A    between atoms: _297  and  _299
REMARK  121  A    between atoms: _299  and  _300
REMARK  122  A    between atoms: _299  and  _302
REMARK  123  A    between atoms: _305  and  _307
REMARK  124  A    between atoms: _307  and  _308
REMARK  125  A    between atoms: _310  and  _312
REMARK  126  A    between atoms: _312  and  _313
REMARK  127  A    between atoms: _316  and  _318
REMARK  128  A    between atoms: _318  and  _319
REMARK  129  A    between atoms: _321  and  _323
REMARK  130  A    between atoms: _323  and  _324
REMARK  131  A    between atoms: _323  and  _326
REMARK  132  A    between atoms: _326  and  _327
REMARK  133  A    between atoms: _330  and  _332
REMARK  134  A    between atoms: _332  and  _333
REMARK  135  A    between atoms: _332  and  _335
REMARK  136  A    between atoms: _335  and  _336
REMARK  137  A    between atoms: _338  and  _340
REMARK  138  A    between atoms: _340  and  _341
REMARK  139  A    between atoms: _340  and  _343
REMARK  140  A    between atoms: _343  and  _344
REMARK  141  A    between atoms: _344  and  _345
REMARK  142  A    between atoms: _347  and  _349
REMARK  143  A    between atoms: _349  and  _350
REMARK  144  A    between atoms: _349  and  _352
REMARK  145  A    between atoms: _355  and  _357
REMARK  146  A    between atoms: _357  and  _358
REMARK  147  A    between atoms: _357  and  _360
REMARK  148  A    between atoms: _360  and  _361
REMARK  149  A    between atoms: _361  and  _362
REMARK  150  A    between atoms: _364  and  _366
REMARK  151  A    between atoms: _366  and  _367
REMARK  152  A    between atoms: _366  and  _369
REMARK  153  A    between atoms: _372  and  _374
REMARK  154  A    between atoms: _374  and  _375
REMARK  155  A    between atoms: _374  and  _377
REMARK  156  A    between atoms: _377  and  _378
REMARK  157  A    between atoms: _378  and  _379
REMARK  158  A    between atoms: _379  and  _380
REMARK  159  A    between atoms: _389  and  _391
REMARK  160  A    between atoms: _391  and  _392
REMARK  161  A    between atoms: _391  and  _394
REMARK  162  A    between atoms: _394  and  _395
REMARK  163  A    between atoms: _401  and  _403
REMARK  164  A    between atoms: _403  and  _404
REMARK  165  A    between atoms: _406  and  _408
REMARK  166  A    between atoms: _408  and  _409
REMARK  167  A    between atoms: _408  and  _411
REMARK  168  A    between atoms: _414  and  _416
REMARK  169  A    between atoms: _416  and  _417
REMARK  170  A    between atoms: _420  and  _422
REMARK  171  A    between atoms: _422  and  _423
REMARK  172  A    between atoms: _426  and  _428
REMARK  173  A    between atoms: _428  and  _429
REMARK  174  A    between atoms: _431  and  _433
REMARK  175  A    between atoms: _433  and  _434
REMARK  176  A    between atoms: _433  and  _436
REMARK  177  A    between atoms: _436  and  _437
REMARK  178  A    between atoms: _439  and  _441
REMARK  179  A    between atoms: _441  and  _442
REMARK  180  A    between atoms: _445  and  _447
REMARK  181  A    between atoms: _447  and  _448
REMARK  182  A    between atoms: _451  and  _453
REMARK  183  A    between atoms: _453  and  _454
REMARK  184  A    between atoms: _453  and  _456
REMARK  185  A    between atoms: _456  and  _457
REMARK  186  A    between atoms: _460  and  _462
REMARK  187  A    between atoms: _462  and  _463
REMARK  188  A    between atoms: _462  and  _465
REMARK  189  A    between atoms: _465  and  _466
REMARK  190  A    between atoms: _469  and  _471
REMARK  191  A    between atoms: _471  and  _472
REMARK  192  A    between atoms: _471  and  _474
REMARK  193  A    between atoms: _474  and  _475
REMARK  194  A    between atoms: _478  and  _480
REMARK  195  A    between atoms: _480  and  _481
REMARK  196  A    between atoms: _480  and  _483
REMARK  197  A    between atoms: _483  and  _484
REMARK  198  A    between atoms: _487  and  _489
REMARK  199  A    between atoms: _489  and  _490
REMARK  200  A    between atoms: _489  and  _492
REMARK  201  A    between atoms: _492  and  _493
REMARK  202  A    between atoms: _496  and  _498
REMARK  203  A    between atoms: _498  and  _499
REMARK  204  A    between atoms: _498  and  _501
REMARK  205  A    between atoms: _501  and  _502
REMARK  206  A    between atoms: _502  and  _503
REMARK  207  A    between atoms: _506  and  _508
REMARK  208  A    between atoms: _508  and  _509
REMARK  209  A    between atoms: _511  and  _513
REMARK  210  A    between atoms: _513  and  _514
REMARK  211  A    between atoms: _513  and  _516
REMARK  212  A    between atoms: _516  and  _517
REMARK  213  A    between atoms: _517  and  _518
REMARK  214  A    between atoms: _518  and  _519
REMARK  215  A    between atoms: _519  and  _520
REMARK  216  A    between atoms: _524  and  _526
REMARK  217  A    between atoms: _526  and  _527
REMARK  218  A    between atoms: _526  and  _529
REMARK  219  A    between atoms: _529  and  _530
REMARK  220  A    between atoms: _530  and  _531
REMARK  221  A    between atoms: _537  and  _538
REMARK  222  A    between atoms: _543  and  _545
REMARK  223  A    between atoms: _545  and  _546
REMARK  224  A    between atoms: _545  and  _548
REMARK  225  A    between atoms: _548  and  _549
REMARK  226  A    between atoms: _549  and  _550
REMARK                            x       y       z     vdW  Elec       q    Type
REMARK                         _______ _______ _______ _____ _____    ______ ____
ROOT
ATOM      1  O   HOH     1      10.616 -12.328  21.914  0.00  0.00    +0.000 OA
ENDROOT
TORSDOF 0
REMARK  Name = ../refined-set-2016/3umo/3umo_pocket.pdb
REMARK  226 active torsions:
REMARK  status: ('A' for Active; 'I' for Inactive)
REMARK    1  A    between atoms: _1  and  _3
REMARK    2  A    between atoms: _3  and  _4
REMARK    3  A    between atoms: _6  and  _8
REMARK    4  A    between atoms: _8  and  _9
REMARK    5  A    between atoms: _8  and  _11
REMARK    6  A    between atoms: _11  and  _12
REMARK    7  A    between atoms: _17  and  _19
REMARK    8  A    between atoms: _19  and  _20
REMARK    9  A    between atoms: _19  and  _22
REMARK   10  A    between atoms: _22  and  _23
REMARK   11  A    between atoms: _23  and  _24
REMARK   12  A    between atoms: _24  and  _25
REMARK   13  A    between atoms: _34  and  _36
REMARK   14  A    between atoms: _36  and  _37
REMARK   15  A    between atoms: _36  and  _39
REMARK   16  A    between atoms: _39  and  _40
REMARK   17  A    between atoms: _42  and  _44
REMARK   18  A    between atoms: _44  and  _45
REMARK   19  A    between atoms: _44  and  _47
REMARK   20  A    between atoms: _47  and  _48
REMARK   21  A    between atoms: _51  and  _53
REMARK   22  A    between atoms: _53  and  _54
REMARK   23  A    between atoms: _53  and  _56
REMARK   24  A    between atoms: _56  and  _57
REMARK   25  A    between atoms: _59  and  _61
REMARK   26  A    between atoms: _61  and  _62
REMARK   27  A    between atoms: _61  and  _64
REMARK   28  A    between atoms: _64  and  _65
REMARK   29  A    between atoms: _65  and  _66
REMARK   30  A    between atoms: _66  and  _67
REMARK   31  A    between atoms: _67  and  _68
REMARK   32  A    between atoms: _73  and  _74
REMARK   33  A    between atoms: _79  and  _81
REMARK   34  A    between atoms: _81  and  _82
REMARK   35  A    between atoms: _81  and  _84
REMARK   36  A    between atoms: _84  and  _85
REMARK   37  A    between atoms: _90  and  _92
REMARK   38  A    between atoms: _92  and  _93
REMARK   39  A    between atoms: _92  and  _95
REMARK   40  A    between atoms: _95  and  _96
REMARK   41  A    between atoms: _96  and  _97
REMARK   42  A    between atoms: _102  and  _104
REMARK   43  A    between atoms: _104  and  _105
REMARK   44  A    between atoms: _104  and  _107
REMARK   45  A    between atoms: _107  and  _108
REMARK   46  A    between atoms: _108  and  _109
REMARK   47  A    between atoms: _109  and  _110
REMARK   48  A    between atoms: _110  and  _111
REMARK   49  A    between atoms: _115  and  _117
REMARK   50  A    between atoms: _117  and  _118
REMARK   51  A    between atoms: _117  and  _120
REMARK   52  A    between atoms: _120  and  _121
REMARK   53  A    between atoms: _121  and  _122
REMARK   54  A    between atoms: _125  and  _127
REMARK   55  A    between atoms: _127  and  _128
REMARK   56  A    between atoms: _127  and  _130
REMARK   57  A    between atoms: _133  and  _135
REMARK   58  A    between atoms: _135  and  _136
REMARK   59  A    between atoms: _135  and  _138
REMARK   60  A    between atoms: _141  and  _143
REMARK   61  A    between atoms: _143  and  _144
REMARK   62  A    between atoms: _143  and  _146
REMARK   63  A    between atoms: _146  and  _147
REMARK   64  A    between atoms: _149  and  _151
REMARK   65  A    between atoms: _151  and  _152
REMARK   66  A    between atoms: _151  and  _154
REMARK   67  A    between atoms: _154  and  _155
REMARK   68  A    between atoms: _158  and  _160
REMARK   69  A    between atoms: _160  and  _161
REMARK   70  A    between atoms: _164  and  _165
REMARK   71  A    between atoms: _170  and  _172
REMARK   72  A    between atoms: _172  and  _173
REMARK   73  A    between atoms: _172  and  _175
REMARK   74  A    between atoms: _175  and  _176
REMARK   75  A    between atoms: _176  and  _177
REMARK   76  A    between atoms: _182  and  _184
REMARK   77  A    between atoms: _184  and  _185
REMARK   78  A    between atoms: _187  and  _189
REMARK   79  A    between atoms: _189  and  _190
REMARK   80  A    between atoms: _193  and  _195
REMARK   81  A    between atoms: _195  and  _196
REMARK   82  A    between atoms: _195  and  _198
REMARK   83  A    between atoms: _198  and  _199
REMARK   84  A    between atoms: _202  and  _204
REMARK   85  A    between atoms: _204  and  _205
REMARK   86  A    between atoms: _204  and  _207
REMARK   87  A    between atoms: _210  and  _212
REMARK   88  A    between atoms: _212  and  _213
REMARK   89  A    between atoms: _212  and  _215
REMARK   90  A    between atoms: _219  and  _220
REMARK   91  A    between atoms: _226  and  _227
REMARK   92  A    between atoms: _233  and  _234
REMARK   93  A    between atoms: _239  and  _241
REMARK   94  A    between atoms: _241  and  _242
REMARK   95  A    between atoms: _241  and  _244
REMARK   96  A    between atoms: _247  and  _249
REMARK   97  A    between atoms: _249  and  _250
REMARK   98  A    between atoms: _249  and  _252
REMARK   99  A    between atoms: _252  and  _253
REMARK  100  A    between atoms: _253  and  _254
REMARK  101  A    between atoms: _254  and  _255
REMARK  102  A    between atoms: _255  and  _256
REMARK  103  A    between atoms: _260  and  _262
REMARK  104  A    between atoms: _262  and  _263
REMARK  105  A    between atoms: _262  and  _265
REMARK  106  A    between atoms: _265  and  _266
REMARK  107  A    between atoms: _268  and  _270
REMARK  108  A    between atoms: _270  and  _271
REMARK  109  A    between atoms: _270  and  _273
REMARK  110  A    between atoms: _273  and  _274
REMARK  111  A    between atoms: _274  and  _275
REMARK  112  A    between atoms: _280  and  _282
REMARK  113  A    between atoms: _282  and  _283
REMARK  114  A    between atoms: _282  and  _285
REMARK  115  A    between atoms: _285  and  _286
REMARK  116  A    between atoms: _288  and  _290
REMARK  117  A    between atoms: _290  and  _291
REMARK  118  A    between atoms: _290  and  _293
REMARK  119  A    between atoms: _293  and  _294
REMARK  120  A    between atoms: _297  and  _299
REMARK  121  A    between atoms: _299  and  _300
REMARK  122  A    between atoms: _299  and  _302
REMARK  123  A    between atoms: _305  and  _307
REMARK  124  A    between atoms: _307  and  _308
REMARK  125  A    between atoms: _310  and  _312
REMARK  126  A    between atoms: _312  and  _313
REMARK  127  A    between atoms: _316  and  _318
REMARK  128  A    between atoms: _318  and  _319
REMARK  129  A    between atoms: _321  and  _323
REMARK  130  A    between atoms: _323  and  _324
REMARK  131  A    between atoms: _323  and  _326
REMARK  132  A    between atoms: _326  and  _327
REMARK  133  A    between atoms: _330  and  _332
REMARK  134  A    between atoms: _332  and  _333
REMARK  135  A    between atoms: _332  and  _335
REMARK  136  A    between atoms: _335  and  _336
REMARK  137  A    between atoms: _338  and  _340
REMARK  138  A    between atoms: _340  and  _341
REMARK  139  A    between atoms: _340  and  _343
REMARK  140  A    between atoms: _343  and  _344
REMARK  141  A    between atoms: _344  and  _345
REMARK  142  A    between atoms: _347  and  _349
REMARK  143  A    between atoms: _349  and  _350
REMARK  144  A    between atoms: _349  and  _352
REMARK  145  A    between atoms: _355  and  _357
REMARK  146  A    between atoms: _357  and  _358
REMARK  147  A    between atoms: _357  and  _360
REMARK  148  A    between atoms: _360  and  _361
REMARK  149  A    between atoms: _361  and  _362
REMARK  150  A    between atoms: _364  and  _366
REMARK  151  A    between atoms: _366  and  _367
REMARK  152  A    between atoms: _366  and  _369
REMARK  153  A    between atoms: _372  and  _374
REMARK  154  A    between atoms: _374  and  _375
REMARK  155  A    between atoms: _374  and  _377
REMARK  156  A    between atoms: _377  and  _378
REMARK  157  A    between atoms: _378  and  _379
REMARK  158  A    between atoms: _379  and  _380
REMARK  159  A    between atoms: _389  and  _391
REMARK  160  A    between atoms: _391  and  _392
REMARK  161  A    between atoms: _391  and  _394
REMARK  162  A    between atoms: _394  and  _395
REMARK  163  A    between atoms: _401  and  _403
REMARK  164  A    between atoms: _403  and  _404
REMARK  165  A    between atoms: _406  and  _408
REMARK  166  A    between atoms: _408  and  _409
REMARK  167  A    between atoms: _408  and  _411
REMARK  168  A    between atoms: _414  and  _416
REMARK  169  A    between atoms: _416  and  _417
REMARK  170  A    between atoms: _420  and  _422
REMARK  171  A    between atoms: _422  and  _423
REMARK  172  A    between atoms: _426  and  _428
REMARK  173  A    between atoms: _428  and  _429
REMARK  174  A    between atoms: _431  and  _433
REMARK  175  A    between atoms: _433  and  _434
REMARK  176  A    between atoms: _433  and  _436
REMARK  177  A    between atoms: _436  and  _437
REMARK  178  A    between atoms: _439  and  _441
REMARK  179  A    between atoms: _441  and  _442
REMARK  180  A    between atoms: _445  and  _447
REMARK  181  A    between atoms: _447  and  _448
REMARK  182  A    between atoms: _451  and  _453
REMARK  183  A    between atoms: _453  and  _454
REMARK  184  A    between atoms: _453  and  _456
REMARK  185  A    between atoms: _456  and  _457
REMARK  186  A    between atoms: _460  and  _462
REMARK  187  A    between atoms: _462  and  _463
REMARK  188  A    between atoms: _462  and  _465
REMARK  189  A    between atoms: _465  and  _466
REMARK  190  A    between atoms: _469  and  _471
REMARK  191  A    between atoms: _471  and  _472
REMARK  192  A    between atoms: _471  and  _474
REMARK  193  A    between atoms: _474  and  _475
REMARK  194  A    between atoms: _478  and  _480
REMARK  195  A    between atoms: _480  and  _481
REMARK  196  A    between atoms: _480  and  _483
REMARK  197  A    between atoms: _483  and  _484
REMARK  198  A    between atoms: _487  and  _489
REMARK  199  A    between atoms: _489  and  _490
REMARK  200  A    between atoms: _489  and  _492
REMARK  201  A    between atoms: _492  and  _493
REMARK  202  A    between atoms: _496  and  _498
REMARK  203  A    between atoms: _498  and  _499
REMARK  204  A    between atoms: _498  and  _501
REMARK  205  A    between atoms: _501  and  _502
REMARK  206  A    between atoms: _502  and  _503
REMARK  207  A    between atoms: _506  and  _508
REMARK  208  A    between atoms: _508  and  _509
REMARK  209  A    between atoms: _511  and  _513
REMARK  210  A    between atoms: _513  and  _514
REMARK  211  A    between atoms: _513  and  _516
REMARK  212  A    between atoms: _516  and  _517
REMARK  213  A    between atoms: _517  and  _518
REMARK  214  A    between atoms: _518  and  _519
REMARK  215  A    between atoms: _519  and  _520
REMARK  216  A    between atoms: _524  and  _526
REMARK  217  A    between atoms: _526  and  _527
REMARK  218  A    between atoms: _526  and  _529
REMARK  219  A    between atoms: _529  and  _530
REMARK  220  A    between atoms: _530  and  _531
REMARK  221  A    between atoms: _537  and  _538
REMARK  222  A    between atoms: _543  and  _545
REMARK  223  A    between atoms: _545  and  _546
REMARK  224  A    between atoms: _545  and  _548
REMARK  225  A    between atoms: _548  and  _549
REMARK  226  A    between atoms: _549  and  _550
REMARK                            x       y       z     vdW  Elec       q    Type
REMARK                         _______ _______ _______ _____ _____    ______ ____
ROOT
ATOM      1  O   HOH     1       3.560 -19.727   3.616  0.00  0.00    +0.000 OA
ENDROOT
TORSDOF 0
REMARK  Name = ../refined-set-2016/3umo/3umo_pocket.pdb
REMARK  226 active torsions:
REMARK  status: ('A' for Active; 'I' for Inactive)
REMARK    1  A    between atoms: _1  and  _3
REMARK    2  A    between atoms: _3  and  _4
REMARK    3  A    between atoms: _6  and  _8
REMARK    4  A    between atoms: _8  and  _9
REMARK    5  A    between atoms: _8  and  _11
REMARK    6  A    between atoms: _11  and  _12
REMARK    7  A    between atoms: _17  and  _19
REMARK    8  A    between atoms: _19  and  _20
REMARK    9  A    between atoms: _19  and  _22
REMARK   10  A    between atoms: _22  and  _23
REMARK   11  A    between atoms: _23  and  _24
REMARK   12  A    between atoms: _24  and  _25
REMARK   13  A    between atoms: _34  and  _36
REMARK   14  A    between atoms: _36  and  _37
REMARK   15  A    between atoms: _36  and  _39
REMARK   16  A    between atoms: _39  and  _40
REMARK   17  A    between atoms: _42  and  _44
REMARK   18  A    between atoms: _44  and  _45
REMARK   19  A    between atoms: _44  and  _47
REMARK   20  A    between atoms: _47  and  _48
REMARK   21  A    between atoms: _51  and  _53
REMARK   22  A    between atoms: _53  and  _54
REMARK   23  A    between atoms: _53  and  _56
REMARK   24  A    between atoms: _56  and  _57
REMARK   25  A    between atoms: _59  and  _61
REMARK   26  A    between atoms: _61  and  _62
REMARK   27  A    between atoms: _61  and  _64
REMARK   28  A    between atoms: _64  and  _65
REMARK   29  A    between atoms: _65  and  _66
REMARK   30  A    between atoms: _66  and  _67
REMARK   31  A    between atoms: _67  and  _68
REMARK   32  A    between atoms: _73  and  _74
REMARK   33  A    between atoms: _79  and  _81
REMARK   34  A    between atoms: _81  and  _82
REMARK   35  A    between atoms: _81  and  _84
REMARK   36  A    between atoms: _84  and  _85
REMARK   37  A    between atoms: _90  and  _92
REMARK   38  A    between atoms: _92  and  _93
REMARK   39  A    between atoms: _92  and  _95
REMARK   40  A    between atoms: _95  and  _96
REMARK   41  A    between atoms: _96  and  _97
REMARK   42  A    between atoms: _102  and  _104
REMARK   43  A    between atoms: _104  and  _105
REMARK   44  A    between atoms: _104  and  _107
REMARK   45  A    between atoms: _107  and  _108
REMARK   46  A    between atoms: _108  and  _109
REMARK   47  A    between atoms: _109  and  _110
REMARK   48  A    between atoms: _110  and  _111
REMARK   49  A    between atoms: _115  and  _117
REMARK   50  A    between atoms: _117  and  _118
REMARK   51  A    between atoms: _117  and  _120
REMARK   52  A    between atoms: _120  and  _121
REMARK   53  A    between atoms: _121  and  _122
REMARK   54  A    between atoms: _125  and  _127
REMARK   55  A    between atoms: _127  and  _128
REMARK   56  A    between atoms: _127  and  _130
REMARK   57  A    between atoms: _133  and  _135
REMARK   58  A    between atoms: _135  and  _136
REMARK   59  A    between atoms: _135  and  _138
REMARK   60  A    between atoms: _141  and  _143
REMARK   61  A    between atoms: _143  and  _144
REMARK   62  A    between atoms: _143  and  _146
REMARK   63  A    between atoms: _146  and  _147
REMARK   64  A    between atoms: _149  and  _151
REMARK   65  A    between atoms: _151  and  _152
REMARK   66  A    between atoms: _151  and  _154
REMARK   67  A    between atoms: _154  and  _155
REMARK   68  A    between atoms: _158  and  _160
REMARK   69  A    between atoms: _160  and  _161
REMARK   70  A    between atoms: _164  and  _165
REMARK   71  A    between atoms: _170  and  _172
REMARK   72  A    between atoms: _172  and  _173
REMARK   73  A    between atoms: _172  and  _175
REMARK   74  A    between atoms: _175  and  _176
REMARK   75  A    between atoms: _176  and  _177
REMARK   76  A    between atoms: _182  and  _184
REMARK   77  A    between atoms: _184  and  _185
REMARK   78  A    between atoms: _187  and  _189
REMARK   79  A    between atoms: _189  and  _190
REMARK   80  A    between atoms: _193  and  _195
REMARK   81  A    between atoms: _195  and  _196
REMARK   82  A    between atoms: _195  and  _198
REMARK   83  A    between atoms: _198  and  _199
REMARK   84  A    between atoms: _202  and  _204
REMARK   85  A    between atoms: _204  and  _205
REMARK   86  A    between atoms: _204  and  _207
REMARK   87  A    between atoms: _210  and  _212
REMARK   88  A    between atoms: _212  and  _213
REMARK   89  A    between atoms: _212  and  _215
REMARK   90  A    between atoms: _219  and  _220
REMARK   91  A    between atoms: _226  and  _227
REMARK   92  A    between atoms: _233  and  _234
REMARK   93  A    between atoms: _239  and  _241
REMARK   94  A    between atoms: _241  and  _242
REMARK   95  A    between atoms: _241  and  _244
REMARK   96  A    between atoms: _247  and  _249
REMARK   97  A    between atoms: _249  and  _250
REMARK   98  A    between atoms: _249  and  _252
REMARK   99  A    between atoms: _252  and  _253
REMARK  100  A    between atoms: _253  and  _254
REMARK  101  A    between atoms: _254  and  _255
REMARK  102  A    between atoms: _255  and  _256
REMARK  103  A    between atoms: _260  and  _262
REMARK  104  A    between atoms: _262  and  _263
REMARK  105  A    between atoms: _262  and  _265
REMARK  106  A    between atoms: _265  and  _266
REMARK  107  A    between atoms: _268  and  _270
REMARK  108  A    between atoms: _270  and  _271
REMARK  109  A    between atoms: _270  and  _273
REMARK  110  A    between atoms: _273  and  _274
REMARK  111  A    between atoms: _274  and  _275
REMARK  112  A    between atoms: _280  and  _282
REMARK  113  A    between atoms: _282  and  _283
REMARK  114  A    between atoms: _282  and  _285
REMARK  115  A    between atoms: _285  and  _286
REMARK  116  A    between atoms: _288  and  _290
REMARK  117  A    between atoms: _290  and  _291
REMARK  118  A    between atoms: _290  and  _293
REMARK  119  A    between atoms: _293  and  _294
REMARK  120  A    between atoms: _297  and  _299
REMARK  121  A    between atoms: _299  and  _300
REMARK  122  A    between atoms: _299  and  _302
REMARK  123  A    between atoms: _305  and  _307
REMARK  124  A    between atoms: _307  and  _308
REMARK  125  A    between atoms: _310  and  _312
REMARK  126  A    between atoms: _312  and  _313
REMARK  127  A    between atoms: _316  and  _318
REMARK  128  A    between atoms: _318  and  _319
REMARK  129  A    between atoms: _321  and  _323
REMARK  130  A    between atoms: _323  and  _324
REMARK  131  A    between atoms: _323  and  _326
REMARK  132  A    between atoms: _326  and  _327
REMARK  133  A    between atoms: _330  and  _332
REMARK  134  A    between atoms: _332  and  _333
REMARK  135  A    between atoms: _332  and  _335
REMARK  136  A    between atoms: _335  and  _336
REMARK  137  A    between atoms: _338  and  _340
REMARK  138  A    between atoms: _340  and  _341
REMARK  139  A    between atoms: _340  and  _343
REMARK  140  A    between atoms: _343  and  _344
REMARK  141  A    between atoms: _344  and  _345
REMARK  142  A    between atoms: _347  and  _349
REMARK  143  A    between atoms: _349  and  _350
REMARK  144  A    between atoms: _349  and  _352
REMARK  145  A    between atoms: _355  and  _357
REMARK  146  A    between atoms: _357  and  _358
REMARK  147  A    between atoms: _357  and  _360
REMARK  148  A    between atoms: _360  and  _361
REMARK  149  A    between atoms: _361  and  _362
REMARK  150  A    between atoms: _364  and  _366
REMARK  151  A    between atoms: _366  and  _367
REMARK  152  A    between atoms: _366  and  _369
REMARK  153  A    between atoms: _372  and  _374
REMARK  154  A    between atoms: _374  and  _375
REMARK  155  A    between atoms: _374  and  _377
REMARK  156  A    between atoms: _377  and  _378
REMARK  157  A    between atoms: _378  and  _379
REMARK  158  A    between atoms: _379  and  _380
REMARK  159  A    between atoms: _389  and  _391
REMARK  160  A    between atoms: _391  and  _392
REMARK  161  A    between atoms: _391  and  _394
REMARK  162  A    between atoms: _394  and  _395
REMARK  163  A    between atoms: _401  and  _403
REMARK  164  A    between atoms: _403  and  _404
REMARK  165  A    between atoms: _406  and  _408
REMARK  166  A    between atoms: _408  and  _409
REMARK  167  A    between atoms: _408  and  _411
REMARK  168  A    between atoms: _414  and  _416
REMARK  169  A    between atoms: _416  and  _417
REMARK  170  A    between atoms: _420  and  _422
REMARK  171  A    between atoms: _422  and  _423
REMARK  172  A    between atoms: _426  and  _428
REMARK  173  A    between atoms: _428  and  _429
REMARK  174  A    between atoms: _431  and  _433
REMARK  175  A    between atoms: _433  and  _434
REMARK  176  A    between atoms: _433  and  _436
REMARK  177  A    between atoms: _436  and  _437
REMARK  178  A    between atoms: _439  and  _441
REMARK  179  A    between atoms: _441  and  _442
REMARK  180  A    between atoms: _445  and  _447
REMARK  181  A    between atoms: _447  and  _448
REMARK  182  A    between atoms: _451  and  _453
REMARK  183  A    between atoms: _453  and  _454
REMARK  184  A    between atoms: _453  and  _456
REMARK  185  A    between atoms: _456  and  _457
REMARK  186  A    between atoms: _460  and  _462
REMARK  187  A    between atoms: _462  and  _463
REMARK  188  A    between atoms: _462  and  _465
REMARK  189  A    between atoms: _465  and  _466
REMARK  190  A    between atoms: _469  and  _471
REMARK  191  A    between atoms: _471  and  _472
REMARK  192  A    between atoms: _471  and  _474
REMARK  193  A    between atoms: _474  and  _475
REMARK  194  A    between atoms: _478  and  _480
REMARK  195  A    between atoms: _480  and  _481
REMARK  196  A    between atoms: _480  and  _483
REMARK  197  A    between atoms: _483  and  _484
REMARK  198  A    between atoms: _487  and  _489
REMARK  199  A    between atoms: _489  and  _490
REMARK  200  A    between atoms: _489  and  _492
REMARK  201  A    between atoms: _492  and  _493
REMARK  202  A    between atoms: _496  and  _498
REMARK  203  A    between atoms: _498  and  _499
REMARK  204  A    between atoms: _498  and  _501
REMARK  205  A    between atoms: _501  and  _502
REMARK  206  A    between atoms: _502  and  _503
REMARK  207  A    between atoms: _506  and  _508
REMARK  208  A    between atoms: _508  and  _509
REMARK  209  A    between atoms: _511  and  _513
REMARK  210  A    between atoms: _513  and  _514
REMARK  211  A    between atoms: _513  and  _516
REMARK  212  A    between atoms: _516  and  _517
REMARK  213  A    between atoms: _517  and  _518
REMARK  214  A    between atoms: _518  and  _519
REMARK  215  A    between atoms: _519  and  _520
REMARK  216  A    between atoms: _524  and  _526
REMARK  217  A    between atoms: _526  and  _527
REMARK  218  A    between atoms: _526  and  _529
REMARK  219  A    between atoms: _529  and  _530
REMARK  220  A    between atoms: _530  and  _531
REMARK  221  A    between atoms: _537  and  _538
REMARK  222  A    between atoms: _543  and  _545
REMARK  223  A    between atoms: _545  and  _546
REMARK  224  A    between atoms: _545  and  _548
REMARK  225  A    between atoms: _548  and  _549
REMARK  226  A    between atoms: _549  and  _550
REMARK                            x       y       z     vdW  Elec       q    Type
REMARK                         _______ _______ _______ _____ _____    ______ ____
ROOT
ATOM      1  O   HOH     1      11.143 -15.076  22.396  0.00  0.00    +0.000 OA
ENDROOT
TORSDOF 0
REMARK  Name = ../refined-set-2016/3umo/3umo_pocket.pdb
REMARK  226 active torsions:
REMARK  status: ('A' for Active; 'I' for Inactive)
REMARK    1  A    between atoms: _1  and  _3
REMARK    2  A    between atoms: _3  and  _4
REMARK    3  A    between atoms: _6  and  _8
REMARK    4  A    between atoms: _8  and  _9
REMARK    5  A    between atoms: _8  and  _11
REMARK    6  A    between atoms: _11  and  _12
REMARK    7  A    between atoms: _17  and  _19
REMARK    8  A    between atoms: _19  and  _20
REMARK    9  A    between atoms: _19  and  _22
REMARK   10  A    between atoms: _22  and  _23
REMARK   11  A    between atoms: _23  and  _24
REMARK   12  A    between atoms: _24  and  _25
REMARK   13  A    between atoms: _34  and  _36
REMARK   14  A    between atoms: _36  and  _37
REMARK   15  A    between atoms: _36  and  _39
REMARK   16  A    between atoms: _39  and  _40
REMARK   17  A    between atoms: _42  and  _44
REMARK   18  A    between atoms: _44  and  _45
REMARK   19  A    between atoms: _44  and  _47
REMARK   20  A    between atoms: _47  and  _48
REMARK   21  A    between atoms: _51  and  _53
REMARK   22  A    between atoms: _53  and  _54
REMARK   23  A    between atoms: _53  and  _56
REMARK   24  A    between atoms: _56  and  _57
REMARK   25  A    between atoms: _59  and  _61
REMARK   26  A    between atoms: _61  and  _62
REMARK   27  A    between atoms: _61  and  _64
REMARK   28  A    between atoms: _64  and  _65
REMARK   29  A    between atoms: _65  and  _66
REMARK   30  A    between atoms: _66  and  _67
REMARK   31  A    between atoms: _67  and  _68
REMARK   32  A    between atoms: _73  and  _74
REMARK   33  A    between atoms: _79  and  _81
REMARK   34  A    between atoms: _81  and  _82
REMARK   35  A    between atoms: _81  and  _84
REMARK   36  A    between atoms: _84  and  _85
REMARK   37  A    between atoms: _90  and  _92
REMARK   38  A    between atoms: _92  and  _93
REMARK   39  A    between atoms: _92  and  _95
REMARK   40  A    between atoms: _95  and  _96
REMARK   41  A    between atoms: _96  and  _97
REMARK   42  A    between atoms: _102  and  _104
REMARK   43  A    between atoms: _104  and  _105
REMARK   44  A    between atoms: _104  and  _107
REMARK   45  A    between atoms: _107  and  _108
REMARK   46  A    between atoms: _108  and  _109
REMARK   47  A    between atoms: _109  and  _110
REMARK   48  A    between atoms: _110  and  _111
REMARK   49  A    between atoms: _115  and  _117
REMARK   50  A    between atoms: _117  and  _118
REMARK   51  A    between atoms: _117  and  _120
REMARK   52  A    between atoms: _120  and  _121
REMARK   53  A    between atoms: _121  and  _122
REMARK   54  A    between atoms: _125  and  _127
REMARK   55  A    between atoms: _127  and  _128
REMARK   56  A    between atoms: _127  and  _130
REMARK   57  A    between atoms: _133  and  _135
REMARK   58  A    between atoms: _135  and  _136
REMARK   59  A    between atoms: _135  and  _138
REMARK   60  A    between atoms: _141  and  _143
REMARK   61  A    between atoms: _143  and  _144
REMARK   62  A    between atoms: _143  and  _146
REMARK   63  A    between atoms: _146  and  _147
REMARK   64  A    between atoms: _149  and  _151
REMARK   65  A    between atoms: _151  and  _152
REMARK   66  A    between atoms: _151  and  _154
REMARK   67  A    between atoms: _154  and  _155
REMARK   68  A    between atoms: _158  and  _160
REMARK   69  A    between atoms: _160  and  _161
REMARK   70  A    between atoms: _164  and  _165
REMARK   71  A    between atoms: _170  and  _172
REMARK   72  A    between atoms: _172  and  _173
REMARK   73  A    between atoms: _172  and  _175
REMARK   74  A    between atoms: _175  and  _176
REMARK   75  A    between atoms: _176  and  _177
REMARK   76  A    between atoms: _182  and  _184
REMARK   77  A    between atoms: _184  and  _185
REMARK   78  A    between atoms: _187  and  _189
REMARK   79  A    between atoms: _189  and  _190
REMARK   80  A    between atoms: _193  and  _195
REMARK   81  A    between atoms: _195  and  _196
REMARK   82  A    between atoms: _195  and  _198
REMARK   83  A    between atoms: _198  and  _199
REMARK   84  A    between atoms: _202  and  _204
REMARK   85  A    between atoms: _204  and  _205
REMARK   86  A    between atoms: _204  and  _207
REMARK   87  A    between atoms: _210  and  _212
REMARK   88  A    between atoms: _212  and  _213
REMARK   89  A    between atoms: _212  and  _215
REMARK   90  A    between atoms: _219  and  _220
REMARK   91  A    between atoms: _226  and  _227
REMARK   92  A    between atoms: _233  and  _234
REMARK   93  A    between atoms: _239  and  _241
REMARK   94  A    between atoms: _241  and  _242
REMARK   95  A    between atoms: _241  and  _244
REMARK   96  A    between atoms: _247  and  _249
REMARK   97  A    between atoms: _249  and  _250
REMARK   98  A    between atoms: _249  and  _252
REMARK   99  A    between atoms: _252  and  _253
REMARK  100  A    between atoms: _253  and  _254
REMARK  101  A    between atoms: _254  and  _255
REMARK  102  A    between atoms: _255  and  _256
REMARK  103  A    between atoms: _260  and  _262
REMARK  104  A    between atoms: _262  and  _263
REMARK  105  A    between atoms: _262  and  _265
REMARK  106  A    between atoms: _265  and  _266
REMARK  107  A    between atoms: _268  and  _270
REMARK  108  A    between atoms: _270  and  _271
REMARK  109  A    between atoms: _270  and  _273
REMARK  110  A    between atoms: _273  and  _274
REMARK  111  A    between atoms: _274  and  _275
REMARK  112  A    between atoms: _280  and  _282
REMARK  113  A    between atoms: _282  and  _283
REMARK  114  A    between atoms: _282  and  _285
REMARK  115  A    between atoms: _285  and  _286
REMARK  116  A    between atoms: _288  and  _290
REMARK  117  A    between atoms: _290  and  _291
REMARK  118  A    between atoms: _290  and  _293
REMARK  119  A    between atoms: _293  and  _294
REMARK  120  A    between atoms: _297  and  _299
REMARK  121  A    between atoms: _299  and  _300
REMARK  122  A    between atoms: _299  and  _302
REMARK  123  A    between atoms: _305  and  _307
REMARK  124  A    between atoms: _307  and  _308
REMARK  125  A    between atoms: _310  and  _312
REMARK  126  A    between atoms: _312  and  _313
REMARK  127  A    between atoms: _316  and  _318
REMARK  128  A    between atoms: _318  and  _319
REMARK  129  A    between atoms: _321  and  _323
REMARK  130  A    between atoms: _323  and  _324
REMARK  131  A    between atoms: _323  and  _326
REMARK  132  A    between atoms: _326  and  _327
REMARK  133  A    between atoms: _330  and  _332
REMARK  134  A    between atoms: _332  and  _333
REMARK  135  A    between atoms: _332  and  _335
REMARK  136  A    between atoms: _335  and  _336
REMARK  137  A    between atoms: _338  and  _340
REMARK  138  A    between atoms: _340  and  _341
REMARK  139  A    between atoms: _340  and  _343
REMARK  140  A    between atoms: _343  and  _344
REMARK  141  A    between atoms: _344  and  _345
REMARK  142  A    between atoms: _347  and  _349
REMARK  143  A    between atoms: _349  and  _350
REMARK  144  A    between atoms: _349  and  _352
REMARK  145  A    between atoms: _355  and  _357
REMARK  146  A    between atoms: _357  and  _358
REMARK  147  A    between atoms: _357  and  _360
REMARK  148  A    between atoms: _360  and  _361
REMARK  149  A    between atoms: _361  and  _362
REMARK  150  A    between atoms: _364  and  _366
REMARK  151  A    between atoms: _366  and  _367
REMARK  152  A    between atoms: _366  and  _369
REMARK  153  A    between atoms: _372  and  _374
REMARK  154  A    between atoms: _374  and  _375
REMARK  155  A    between atoms: _374  and  _377
REMARK  156  A    between atoms: _377  and  _378
REMARK  157  A    between atoms: _378  and  _379
REMARK  158  A    between atoms: _379  and  _380
REMARK  159  A    between atoms: _389  and  _391
REMARK  160  A    between atoms: _391  and  _392
REMARK  161  A    between atoms: _391  and  _394
REMARK  162  A    between atoms: _394  and  _395
REMARK  163  A    between atoms: _401  and  _403
REMARK  164  A    between atoms: _403  and  _404
REMARK  165  A    between atoms: _406  and  _408
REMARK  166  A    between atoms: _408  and  _409
REMARK  167  A    between atoms: _408  and  _411
REMARK  168  A    between atoms: _414  and  _416
REMARK  169  A    between atoms: _416  and  _417
REMARK  170  A    between atoms: _420  and  _422
REMARK  171  A    between atoms: _422  and  _423
REMARK  172  A    between atoms: _426  and  _428
REMARK  173  A    between atoms: _428  and  _429
REMARK  174  A    between atoms: _431  and  _433
REMARK  175  A    between atoms: _433  and  _434
REMARK  176  A    between atoms: _433  and  _436
REMARK  177  A    between atoms: _436  and  _437
REMARK  178  A    between atoms: _439  and  _441
REMARK  179  A    between atoms: _441  and  _442
REMARK  180  A    between atoms: _445  and  _447
REMARK  181  A    between atoms: _447  and  _448
REMARK  182  A    between atoms: _451  and  _453
REMARK  183  A    between atoms: _453  and  _454
REMARK  184  A    between atoms: _453  and  _456
REMARK  185  A    between atoms: _456  and  _457
REMARK  186  A    between atoms: _460  and  _462
REMARK  187  A    between atoms: _462  and  _463
REMARK  188  A    between atoms: _462  and  _465
REMARK  189  A    between atoms: _465  and  _466
REMARK  190  A    between atoms: _469  and  _471
REMARK  191  A    between atoms: _471  and  _472
REMARK  192  A    between atoms: _471  and  _474
REMARK  193  A    between atoms: _474  and  _475
REMARK  194  A    between atoms: _478  and  _480
REMARK  195  A    between atoms: _480  and  _481
REMARK  196  A    between atoms: _480  and  _483
REMARK  197  A    between atoms: _483  and  _484
REMARK  198  A    between atoms: _487  and  _489
REMARK  199  A    between atoms: _489  and  _490
REMARK  200  A    between atoms: _489  and  _492
REMARK  201  A    between atoms: _492  and  _493
REMARK  202  A    between atoms: _496  and  _498
REMARK  203  A    between atoms: _498  and  _499
REMARK  204  A    between atoms: _498  and  _501
REMARK  205  A    between atoms: _501  and  _502
REMARK  206  A    between atoms: _502  and  _503
REMARK  207  A    between atoms: _506  and  _508
REMARK  208  A    between atoms: _508  and  _509
REMARK  209  A    between atoms: _511  and  _513
REMARK  210  A    between atoms: _513  and  _514
REMARK  211  A    between atoms: _513  and  _516
REMARK  212  A    between atoms: _516  and  _517
REMARK  213  A    between atoms: _517  and  _518
REMARK  214  A    between atoms: _518  and  _519
REMARK  215  A    between atoms: _519  and  _520
REMARK  216  A    between atoms: _524  and  _526
REMARK  217  A    between atoms: _526  and  _527
REMARK  218  A    between atoms: _526  and  _529
REMARK  219  A    between atoms: _529  and  _530
REMARK  220  A    between atoms: _530  and  _531
REMARK  221  A    between atoms: _537  and  _538
REMARK  222  A    between atoms: _543  and  _545
REMARK  223  A    between atoms: _545  and  _546
REMARK  224  A    between atoms: _545  and  _548
REMARK  225  A    between atoms: _548  and  _549
REMARK  226  A    between atoms: _549  and  _550
REMARK                            x       y       z     vdW  Elec       q    Type
REMARK                         _______ _______ _______ _____ _____    ______ ____
ROOT
ATOM      1  O   HOH     1      10.878 -21.892   6.911  0.00  0.00    +0.000 OA
ENDROOT
TORSDOF 0
REMARK  Name = ../refined-set-2016/3umo/3umo_pocket.pdb
REMARK  226 active torsions:
REMARK  status: ('A' for Active; 'I' for Inactive)
REMARK    1  A    between atoms: _1  and  _3
REMARK    2  A    between atoms: _3  and  _4
REMARK    3  A    between atoms: _6  and  _8
REMARK    4  A    between atoms: _8  and  _9
REMARK    5  A    between atoms: _8  and  _11
REMARK    6  A    between atoms: _11  and  _12
REMARK    7  A    between atoms: _17  and  _19
REMARK    8  A    between atoms: _19  and  _20
REMARK    9  A    between atoms: _19  and  _22
REMARK   10  A    between atoms: _22  and  _23
REMARK   11  A    between atoms: _23  and  _24
REMARK   12  A    between atoms: _24  and  _25
REMARK   13  A    between atoms: _34  and  _36
REMARK   14  A    between atoms: _36  and  _37
REMARK   15  A    between atoms: _36  and  _39
REMARK   16  A    between atoms: _39  and  _40
REMARK   17  A    between atoms: _42  and  _44
REMARK   18  A    between atoms: _44  and  _45
REMARK   19  A    between atoms: _44  and  _47
REMARK   20  A    between atoms: _47  and  _48
REMARK   21  A    between atoms: _51  and  _53
REMARK   22  A    between atoms: _53  and  _54
REMARK   23  A    between atoms: _53  and  _56
REMARK   24  A    between atoms: _56  and  _57
REMARK   25  A    between atoms: _59  and  _61
REMARK   26  A    between atoms: _61  and  _62
REMARK   27  A    between atoms: _61  and  _64
REMARK   28  A    between atoms: _64  and  _65
REMARK   29  A    between atoms: _65  and  _66
REMARK   30  A    between atoms: _66  and  _67
REMARK   31  A    between atoms: _67  and  _68
REMARK   32  A    between atoms: _73  and  _74
REMARK   33  A    between atoms: _79  and  _81
REMARK   34  A    between atoms: _81  and  _82
REMARK   35  A    between atoms: _81  and  _84
REMARK   36  A    between atoms: _84  and  _85
REMARK   37  A    between atoms: _90  and  _92
REMARK   38  A    between atoms: _92  and  _93
REMARK   39  A    between atoms: _92  and  _95
REMARK   40  A    between atoms: _95  and  _96
REMARK   41  A    between atoms: _96  and  _97
REMARK   42  A    between atoms: _102  and  _104
REMARK   43  A    between atoms: _104  and  _105
REMARK   44  A    between atoms: _104  and  _107
REMARK   45  A    between atoms: _107  and  _108
REMARK   46  A    between atoms: _108  and  _109
REMARK   47  A    between atoms: _109  and  _110
REMARK   48  A    between atoms: _110  and  _111
REMARK   49  A    between atoms: _115  and  _117
REMARK   50  A    between atoms: _117  and  _118
REMARK   51  A    between atoms: _117  and  _120
REMARK   52  A    between atoms: _120  and  _121
REMARK   53  A    between atoms: _121  and  _122
REMARK   54  A    between atoms: _125  and  _127
REMARK   55  A    between atoms: _127  and  _128
REMARK   56  A    between atoms: _127  and  _130
REMARK   57  A    between atoms: _133  and  _135
REMARK   58  A    between atoms: _135  and  _136
REMARK   59  A    between atoms: _135  and  _138
REMARK   60  A    between atoms: _141  and  _143
REMARK   61  A    between atoms: _143  and  _144
REMARK   62  A    between atoms: _143  and  _146
REMARK   63  A    between atoms: _146  and  _147
REMARK   64  A    between atoms: _149  and  _151
REMARK   65  A    between atoms: _151  and  _152
REMARK   66  A    between atoms: _151  and  _154
REMARK   67  A    between atoms: _154  and  _155
REMARK   68  A    between atoms: _158  and  _160
REMARK   69  A    between atoms: _160  and  _161
REMARK   70  A    between atoms: _164  and  _165
REMARK   71  A    between atoms: _170  and  _172
REMARK   72  A    between atoms: _172  and  _173
REMARK   73  A    between atoms: _172  and  _175
REMARK   74  A    between atoms: _175  and  _176
REMARK   75  A    between atoms: _176  and  _177
REMARK   76  A    between atoms: _182  and  _184
REMARK   77  A    between atoms: _184  and  _185
REMARK   78  A    between atoms: _187  and  _189
REMARK   79  A    between atoms: _189  and  _190
REMARK   80  A    between atoms: _193  and  _195
REMARK   81  A    between atoms: _195  and  _196
REMARK   82  A    between atoms: _195  and  _198
REMARK   83  A    between atoms: _198  and  _199
REMARK   84  A    between atoms: _202  and  _204
REMARK   85  A    between atoms: _204  and  _205
REMARK   86  A    between atoms: _204  and  _207
REMARK   87  A    between atoms: _210  and  _212
REMARK   88  A    between atoms: _212  and  _213
REMARK   89  A    between atoms: _212  and  _215
REMARK   90  A    between atoms: _219  and  _220
REMARK   91  A    between atoms: _226  and  _227
REMARK   92  A    between atoms: _233  and  _234
REMARK   93  A    between atoms: _239  and  _241
REMARK   94  A    between atoms: _241  and  _242
REMARK   95  A    between atoms: _241  and  _244
REMARK   96  A    between atoms: _247  and  _249
REMARK   97  A    between atoms: _249  and  _250
REMARK   98  A    between atoms: _249  and  _252
REMARK   99  A    between atoms: _252  and  _253
REMARK  100  A    between atoms: _253  and  _254
REMARK  101  A    between atoms: _254  and  _255
REMARK  102  A    between atoms: _255  and  _256
REMARK  103  A    between atoms: _260  and  _262
REMARK  104  A    between atoms: _262  and  _263
REMARK  105  A    between atoms: _262  and  _265
REMARK  106  A    between atoms: _265  and  _266
REMARK  107  A    between atoms: _268  and  _270
REMARK  108  A    between atoms: _270  and  _271
REMARK  109  A    between atoms: _270  and  _273
REMARK  110  A    between atoms: _273  and  _274
REMARK  111  A    between atoms: _274  and  _275
REMARK  112  A    between atoms: _280  and  _282
REMARK  113  A    between atoms: _282  and  _283
REMARK  114  A    between atoms: _282  and  _285
REMARK  115  A    between atoms: _285  and  _286
REMARK  116  A    between atoms: _288  and  _290
REMARK  117  A    between atoms: _290  and  _291
REMARK  118  A    between atoms: _290  and  _293
REMARK  119  A    between atoms: _293  and  _294
REMARK  120  A    between atoms: _297  and  _299
REMARK  121  A    between atoms: _299  and  _300
REMARK  122  A    between atoms: _299  and  _302
REMARK  123  A    between atoms: _305  and  _307
REMARK  124  A    between atoms: _307  and  _308
REMARK  125  A    between atoms: _310  and  _312
REMARK  126  A    between atoms: _312  and  _313
REMARK  127  A    between atoms: _316  and  _318
REMARK  128  A    between atoms: _318  and  _319
REMARK  129  A    between atoms: _321  and  _323
REMARK  130  A    between atoms: _323  and  _324
REMARK  131  A    between atoms: _323  and  _326
REMARK  132  A    between atoms: _326  and  _327
REMARK  133  A    between atoms: _330  and  _332
REMARK  134  A    between atoms: _332  and  _333
REMARK  135  A    between atoms: _332  and  _335
REMARK  136  A    between atoms: _335  and  _336
REMARK  137  A    between atoms: _338  and  _340
REMARK  138  A    between atoms: _340  and  _341
REMARK  139  A    between atoms: _340  and  _343
REMARK  140  A    between atoms: _343  and  _344
REMARK  141  A    between atoms: _344  and  _345
REMARK  142  A    between atoms: _347  and  _349
REMARK  143  A    between atoms: _349  and  _350
REMARK  144  A    between atoms: _349  and  _352
REMARK  145  A    between atoms: _355  and  _357
REMARK  146  A    between atoms: _357  and  _358
REMARK  147  A    between atoms: _357  and  _360
REMARK  148  A    between atoms: _360  and  _361
REMARK  149  A    between atoms: _361  and  _362
REMARK  150  A    between atoms: _364  and  _366
REMARK  151  A    between atoms: _366  and  _367
REMARK  152  A    between atoms: _366  and  _369
REMARK  153  A    between atoms: _372  and  _374
REMARK  154  A    between atoms: _374  and  _375
REMARK  155  A    between atoms: _374  and  _377
REMARK  156  A    between atoms: _377  and  _378
REMARK  157  A    between atoms: _378  and  _379
REMARK  158  A    between atoms: _379  and  _380
REMARK  159  A    between atoms: _389  and  _391
REMARK  160  A    between atoms: _391  and  _392
REMARK  161  A    between atoms: _391  and  _394
REMARK  162  A    between atoms: _394  and  _395
REMARK  163  A    between atoms: _401  and  _403
REMARK  164  A    between atoms: _403  and  _404
REMARK  165  A    between atoms: _406  and  _408
REMARK  166  A    between atoms: _408  and  _409
REMARK  167  A    between atoms: _408  and  _411
REMARK  168  A    between atoms: _414  and  _416
REMARK  169  A    between atoms: _416  and  _417
REMARK  170  A    between atoms: _420  and  _422
REMARK  171  A    between atoms: _422  and  _423
REMARK  172  A    between atoms: _426  and  _428
REMARK  173  A    between atoms: _428  and  _429
REMARK  174  A    between atoms: _431  and  _433
REMARK  175  A    between atoms: _433  and  _434
REMARK  176  A    between atoms: _433  and  _436
REMARK  177  A    between atoms: _436  and  _437
REMARK  178  A    between atoms: _439  and  _441
REMARK  179  A    between atoms: _441  and  _442
REMARK  180  A    between atoms: _445  and  _447
REMARK  181  A    between atoms: _447  and  _448
REMARK  182  A    between atoms: _451  and  _453
REMARK  183  A    between atoms: _453  and  _454
REMARK  184  A    between atoms: _453  and  _456
REMARK  185  A    between atoms: _456  and  _457
REMARK  186  A    between atoms: _460  and  _462
REMARK  187  A    between atoms: _462  and  _463
REMARK  188  A    between atoms: _462  and  _465
REMARK  189  A    between atoms: _465  and  _466
REMARK  190  A    between atoms: _469  and  _471
REMARK  191  A    between atoms: _471  and  _472
REMARK  192  A    between atoms: _471  and  _474
REMARK  193  A    between atoms: _474  and  _475
REMARK  194  A    between atoms: _478  and  _480
REMARK  195  A    between atoms: _480  and  _481
REMARK  196  A    between atoms: _480  and  _483
REMARK  197  A    between atoms: _483  and  _484
REMARK  198  A    between atoms: _487  and  _489
REMARK  199  A    between atoms: _489  and  _490
REMARK  200  A    between atoms: _489  and  _492
REMARK  201  A    between atoms: _492  and  _493
REMARK  202  A    between atoms: _496  and  _498
REMARK  203  A    between atoms: _498  and  _499
REMARK  204  A    between atoms: _498  and  _501
REMARK  205  A    between atoms: _501  and  _502
REMARK  206  A    between atoms: _502  and  _503
REMARK  207  A    between atoms: _506  and  _508
REMARK  208  A    between atoms: _508  and  _509
REMARK  209  A    between atoms: _511  and  _513
REMARK  210  A    between atoms: _513  and  _514
REMARK  211  A    between atoms: _513  and  _516
REMARK  212  A    between atoms: _516  and  _517
REMARK  213  A    between atoms: _517  and  _518
REMARK  214  A    between atoms: _518  and  _519
REMARK  215  A    between atoms: _519  and  _520
REMARK  216  A    between atoms: _524  and  _526
REMARK  217  A    between atoms: _526  and  _527
REMARK  218  A    between atoms: _526  and  _529
REMARK  219  A    between atoms: _529  and  _530
REMARK  220  A    between atoms: _530  and  _531
REMARK  221  A    between atoms: _537  and  _538
REMARK  222  A    between atoms: _543  and  _545
REMARK  223  A    between atoms: _545  and  _546
REMARK  224  A    between atoms: _545  and  _548
REMARK  225  A    between atoms: _548  and  _549
REMARK  226  A    between atoms: _549  and  _550
REMARK                            x       y       z     vdW  Elec       q    Type
REMARK                         _______ _______ _______ _____ _____    ______ ____
ROOT
ATOM      1  O   HOH     1      -1.530 -21.920   9.341  0.00  0.00    +0.000 OA
ENDROOT
TORSDOF 0
REMARK  Name = ../refined-set-2016/3umo/3umo_pocket.pdb
REMARK  226 active torsions:
REMARK  status: ('A' for Active; 'I' for Inactive)
REMARK    1  A    between atoms: _1  and  _3
REMARK    2  A    between atoms: _3  and  _4
REMARK    3  A    between atoms: _6  and  _8
REMARK    4  A    between atoms: _8  and  _9
REMARK    5  A    between atoms: _8  and  _11
REMARK    6  A    between atoms: _11  and  _12
REMARK    7  A    between atoms: _17  and  _19
REMARK    8  A    between atoms: _19  and  _20
REMARK    9  A    between atoms: _19  and  _22
REMARK   10  A    between atoms: _22  and  _23
REMARK   11  A    between atoms: _23  and  _24
REMARK   12  A    between atoms: _24  and  _25
REMARK   13  A    between atoms: _34  and  _36
REMARK   14  A    between atoms: _36  and  _37
REMARK   15  A    between atoms: _36  and  _39
REMARK   16  A    between atoms: _39  and  _40
REMARK   17  A    between atoms: _42  and  _44
REMARK   18  A    between atoms: _44  and  _45
REMARK   19  A    between atoms: _44  and  _47
REMARK   20  A    between atoms: _47  and  _48
REMARK   21  A    between atoms: _51  and  _53
REMARK   22  A    between atoms: _53  and  _54
REMARK   23  A    between atoms: _53  and  _56
REMARK   24  A    between atoms: _56  and  _57
REMARK   25  A    between atoms: _59  and  _61
REMARK   26  A    between atoms: _61  and  _62
REMARK   27  A    between atoms: _61  and  _64
REMARK   28  A    between atoms: _64  and  _65
REMARK   29  A    between atoms: _65  and  _66
REMARK   30  A    between atoms: _66  and  _67
REMARK   31  A    between atoms: _67  and  _68
REMARK   32  A    between atoms: _73  and  _74
REMARK   33  A    between atoms: _79  and  _81
REMARK   34  A    between atoms: _81  and  _82
REMARK   35  A    between atoms: _81  and  _84
REMARK   36  A    between atoms: _84  and  _85
REMARK   37  A    between atoms: _90  and  _92
REMARK   38  A    between atoms: _92  and  _93
REMARK   39  A    between atoms: _92  and  _95
REMARK   40  A    between atoms: _95  and  _96
REMARK   41  A    between atoms: _96  and  _97
REMARK   42  A    between atoms: _102  and  _104
REMARK   43  A    between atoms: _104  and  _105
REMARK   44  A    between atoms: _104  and  _107
REMARK   45  A    between atoms: _107  and  _108
REMARK   46  A    between atoms: _108  and  _109
REMARK   47  A    between atoms: _109  and  _110
REMARK   48  A    between atoms: _110  and  _111
REMARK   49  A    between atoms: _115  and  _117
REMARK   50  A    between atoms: _117  and  _118
REMARK   51  A    between atoms: _117  and  _120
REMARK   52  A    between atoms: _120  and  _121
REMARK   53  A    between atoms: _121  and  _122
REMARK   54  A    between atoms: _125  and  _127
REMARK   55  A    between atoms: _127  and  _128
REMARK   56  A    between atoms: _127  and  _130
REMARK   57  A    between atoms: _133  and  _135
REMARK   58  A    between atoms: _135  and  _136
REMARK   59  A    between atoms: _135  and  _138
REMARK   60  A    between atoms: _141  and  _143
REMARK   61  A    between atoms: _143  and  _144
REMARK   62  A    between atoms: _143  and  _146
REMARK   63  A    between atoms: _146  and  _147
REMARK   64  A    between atoms: _149  and  _151
REMARK   65  A    between atoms: _151  and  _152
REMARK   66  A    between atoms: _151  and  _154
REMARK   67  A    between atoms: _154  and  _155
REMARK   68  A    between atoms: _158  and  _160
REMARK   69  A    between atoms: _160  and  _161
REMARK   70  A    between atoms: _164  and  _165
REMARK   71  A    between atoms: _170  and  _172
REMARK   72  A    between atoms: _172  and  _173
REMARK   73  A    between atoms: _172  and  _175
REMARK   74  A    between atoms: _175  and  _176
REMARK   75  A    between atoms: _176  and  _177
REMARK   76  A    between atoms: _182  and  _184
REMARK   77  A    between atoms: _184  and  _185
REMARK   78  A    between atoms: _187  and  _189
REMARK   79  A    between atoms: _189  and  _190
REMARK   80  A    between atoms: _193  and  _195
REMARK   81  A    between atoms: _195  and  _196
REMARK   82  A    between atoms: _195  and  _198
REMARK   83  A    between atoms: _198  and  _199
REMARK   84  A    between atoms: _202  and  _204
REMARK   85  A    between atoms: _204  and  _205
REMARK   86  A    between atoms: _204  and  _207
REMARK   87  A    between atoms: _210  and  _212
REMARK   88  A    between atoms: _212  and  _213
REMARK   89  A    between atoms: _212  and  _215
REMARK   90  A    between atoms: _219  and  _220
REMARK   91  A    between atoms: _226  and  _227
REMARK   92  A    between atoms: _233  and  _234
REMARK   93  A    between atoms: _239  and  _241
REMARK   94  A    between atoms: _241  and  _242
REMARK   95  A    between atoms: _241  and  _244
REMARK   96  A    between atoms: _247  and  _249
REMARK   97  A    between atoms: _249  and  _250
REMARK   98  A    between atoms: _249  and  _252
REMARK   99  A    between atoms: _252  and  _253
REMARK  100  A    between atoms: _253  and  _254
REMARK  101  A    between atoms: _254  and  _255
REMARK  102  A    between atoms: _255  and  _256
REMARK  103  A    between atoms: _260  and  _262
REMARK  104  A    between atoms: _262  and  _263
REMARK  105  A    between atoms: _262  and  _265
REMARK  106  A    between atoms: _265  and  _266
REMARK  107  A    between atoms: _268  and  _270
REMARK  108  A    between atoms: _270  and  _271
REMARK  109  A    between atoms: _270  and  _273
REMARK  110  A    between atoms: _273  and  _274
REMARK  111  A    between atoms: _274  and  _275
REMARK  112  A    between atoms: _280  and  _282
REMARK  113  A    between atoms: _282  and  _283
REMARK  114  A    between atoms: _282  and  _285
REMARK  115  A    between atoms: _285  and  _286
REMARK  116  A    between atoms: _288  and  _290
REMARK  117  A    between atoms: _290  and  _291
REMARK  118  A    between atoms: _290  and  _293
REMARK  119  A    between atoms: _293  and  _294
REMARK  120  A    between atoms: _297  and  _299
REMARK  121  A    between atoms: _299  and  _300
REMARK  122  A    between atoms: _299  and  _302
REMARK  123  A    between atoms: _305  and  _307
REMARK  124  A    between atoms: _307  and  _308
REMARK  125  A    between atoms: _310  and  _312
REMARK  126  A    between atoms: _312  and  _313
REMARK  127  A    between atoms: _316  and  _318
REMARK  128  A    between atoms: _318  and  _319
REMARK  129  A    between atoms: _321  and  _323
REMARK  130  A    between atoms: _323  and  _324
REMARK  131  A    between atoms: _323  and  _326
REMARK  132  A    between atoms: _326  and  _327
REMARK  133  A    between atoms: _330  and  _332
REMARK  134  A    between atoms: _332  and  _333
REMARK  135  A    between atoms: _332  and  _335
REMARK  136  A    between atoms: _335  and  _336
REMARK  137  A    between atoms: _338  and  _340
REMARK  138  A    between atoms: _340  and  _341
REMARK  139  A    between atoms: _340  and  _343
REMARK  140  A    between atoms: _343  and  _344
REMARK  141  A    between atoms: _344  and  _345
REMARK  142  A    between atoms: _347  and  _349
REMARK  143  A    between atoms: _349  and  _350
REMARK  144  A    between atoms: _349  and  _352
REMARK  145  A    between atoms: _355  and  _357
REMARK  146  A    between atoms: _357  and  _358
REMARK  147  A    between atoms: _357  and  _360
REMARK  148  A    between atoms: _360  and  _361
REMARK  149  A    between atoms: _361  and  _362
REMARK  150  A    between atoms: _364  and  _366
REMARK  151  A    between atoms: _366  and  _367
REMARK  152  A    between atoms: _366  and  _369
REMARK  153  A    between atoms: _372  and  _374
REMARK  154  A    between atoms: _374  and  _375
REMARK  155  A    between atoms: _374  and  _377
REMARK  156  A    between atoms: _377  and  _378
REMARK  157  A    between atoms: _378  and  _379
REMARK  158  A    between atoms: _379  and  _380
REMARK  159  A    between atoms: _389  and  _391
REMARK  160  A    between atoms: _391  and  _392
REMARK  161  A    between atoms: _391  and  _394
REMARK  162  A    between atoms: _394  and  _395
REMARK  163  A    between atoms: _401  and  _403
REMARK  164  A    between atoms: _403  and  _404
REMARK  165  A    between atoms: _406  and  _408
REMARK  166  A    between atoms: _408  and  _409
REMARK  167  A    between atoms: _408  and  _411
REMARK  168  A    between atoms: _414  and  _416
REMARK  169  A    between atoms: _416  and  _417
REMARK  170  A    between atoms: _420  and  _422
REMARK  171  A    between atoms: _422  and  _423
REMARK  172  A    between atoms: _426  and  _428
REMARK  173  A    between atoms: _428  and  _429
REMARK  174  A    between atoms: _431  and  _433
REMARK  175  A    between atoms: _433  and  _434
REMARK  176  A    between atoms: _433  and  _436
REMARK  177  A    between atoms: _436  and  _437
REMARK  178  A    between atoms: _439  and  _441
REMARK  179  A    between atoms: _441  and  _442
REMARK  180  A    between atoms: _445  and  _447
REMARK  181  A    between atoms: _447  and  _448
REMARK  182  A    between atoms: _451  and  _453
REMARK  183  A    between atoms: _453  and  _454
REMARK  184  A    between atoms: _453  and  _456
REMARK  185  A    between atoms: _456  and  _457
REMARK  186  A    between atoms: _460  and  _462
REMARK  187  A    between atoms: _462  and  _463
REMARK  188  A    between atoms: _462  and  _465
REMARK  189  A    between atoms: _465  and  _466
REMARK  190  A    between atoms: _469  and  _471
REMARK  191  A    between atoms: _471  and  _472
REMARK  192  A    between atoms: _471  and  _474
REMARK  193  A    between atoms: _474  and  _475
REMARK  194  A    between atoms: _478  and  _480
REMARK  195  A    between atoms: _480  and  _481
REMARK  196  A    between atoms: _480  and  _483
REMARK  197  A    between atoms: _483  and  _484
REMARK  198  A    between atoms: _487  and  _489
REMARK  199  A    between atoms: _489  and  _490
REMARK  200  A    between atoms: _489  and  _492
REMARK  201  A    between atoms: _492  and  _493
REMARK  202  A    between atoms: _496  and  _498
REMARK  203  A    between atoms: _498  and  _499
REMARK  204  A    between atoms: _498  and  _501
REMARK  205  A    between atoms: _501  and  _502
REMARK  206  A    between atoms: _502  and  _503
REMARK  207  A    between atoms: _506  and  _508
REMARK  208  A    between atoms: _508  and  _509
REMARK  209  A    between atoms: _511  and  _513
REMARK  210  A    between atoms: _513  and  _514
REMARK  211  A    between atoms: _513  and  _516
REMARK  212  A    between atoms: _516  and  _517
REMARK  213  A    between atoms: _517  and  _518
REMARK  214  A    between atoms: _518  and  _519
REMARK  215  A    between atoms: _519  and  _520
REMARK  216  A    between atoms: _524  and  _526
REMARK  217  A    between atoms: _526  and  _527
REMARK  218  A    between atoms: _526  and  _529
REMARK  219  A    between atoms: _529  and  _530
REMARK  220  A    between atoms: _530  and  _531
REMARK  221  A    between atoms: _537  and  _538
REMARK  222  A    between atoms: _543  and  _545
REMARK  223  A    between atoms: _545  and  _546
REMARK  224  A    between atoms: _545  and  _548
REMARK  225  A    between atoms: _548  and  _549
REMARK  226  A    between atoms: _549  and  _550
REMARK                            x       y       z     vdW  Elec       q    Type
REMARK                         _______ _______ _______ _____ _____    ______ ____
ROOT
ATOM      1  O   HOH     1       6.727 -13.466  10.570  0.00  0.00    +0.000 OA
ENDROOT
TORSDOF 0
REMARK  Name = ../refined-set-2016/3umo/3umo_pocket.pdb
REMARK  226 active torsions:
REMARK  status: ('A' for Active; 'I' for Inactive)
REMARK    1  A    between atoms: _1  and  _3
REMARK    2  A    between atoms: _3  and  _4
REMARK    3  A    between atoms: _6  and  _8
REMARK    4  A    between atoms: _8  and  _9
REMARK    5  A    between atoms: _8  and  _11
REMARK    6  A    between atoms: _11  and  _12
REMARK    7  A    between atoms: _17  and  _19
REMARK    8  A    between atoms: _19  and  _20
REMARK    9  A    between atoms: _19  and  _22
REMARK   10  A    between atoms: _22  and  _23
REMARK   11  A    between atoms: _23  and  _24
REMARK   12  A    between atoms: _24  and  _25
REMARK   13  A    between atoms: _34  and  _36
REMARK   14  A    between atoms: _36  and  _37
REMARK   15  A    between atoms: _36  and  _39
REMARK   16  A    between atoms: _39  and  _40
REMARK   17  A    between atoms: _42  and  _44
REMARK   18  A    between atoms: _44  and  _45
REMARK   19  A    between atoms: _44  and  _47
REMARK   20  A    between atoms: _47  and  _48
REMARK   21  A    between atoms: _51  and  _53
REMARK   22  A    between atoms: _53  and  _54
REMARK   23  A    between atoms: _53  and  _56
REMARK   24  A    between atoms: _56  and  _57
REMARK   25  A    between atoms: _59  and  _61
REMARK   26  A    between atoms: _61  and  _62
REMARK   27  A    between atoms: _61  and  _64
REMARK   28  A    between atoms: _64  and  _65
REMARK   29  A    between atoms: _65  and  _66
REMARK   30  A    between atoms: _66  and  _67
REMARK   31  A    between atoms: _67  and  _68
REMARK   32  A    between atoms: _73  and  _74
REMARK   33  A    between atoms: _79  and  _81
REMARK   34  A    between atoms: _81  and  _82
REMARK   35  A    between atoms: _81  and  _84
REMARK   36  A    between atoms: _84  and  _85
REMARK   37  A    between atoms: _90  and  _92
REMARK   38  A    between atoms: _92  and  _93
REMARK   39  A    between atoms: _92  and  _95
REMARK   40  A    between atoms: _95  and  _96
REMARK   41  A    between atoms: _96  and  _97
REMARK   42  A    between atoms: _102  and  _104
REMARK   43  A    between atoms: _104  and  _105
REMARK   44  A    between atoms: _104  and  _107
REMARK   45  A    between atoms: _107  and  _108
REMARK   46  A    between atoms: _108  and  _109
REMARK   47  A    between atoms: _109  and  _110
REMARK   48  A    between atoms: _110  and  _111
REMARK   49  A    between atoms: _115  and  _117
REMARK   50  A    between atoms: _117  and  _118
REMARK   51  A    between atoms: _117  and  _120
REMARK   52  A    between atoms: _120  and  _121
REMARK   53  A    between atoms: _121  and  _122
REMARK   54  A    between atoms: _125  and  _127
REMARK   55  A    between atoms: _127  and  _128
REMARK   56  A    between atoms: _127  and  _130
REMARK   57  A    between atoms: _133  and  _135
REMARK   58  A    between atoms: _135  and  _136
REMARK   59  A    between atoms: _135  and  _138
REMARK   60  A    between atoms: _141  and  _143
REMARK   61  A    between atoms: _143  and  _144
REMARK   62  A    between atoms: _143  and  _146
REMARK   63  A    between atoms: _146  and  _147
REMARK   64  A    between atoms: _149  and  _151
REMARK   65  A    between atoms: _151  and  _152
REMARK   66  A    between atoms: _151  and  _154
REMARK   67  A    between atoms: _154  and  _155
REMARK   68  A    between atoms: _158  and  _160
REMARK   69  A    between atoms: _160  and  _161
REMARK   70  A    between atoms: _164  and  _165
REMARK   71  A    between atoms: _170  and  _172
REMARK   72  A    between atoms: _172  and  _173
REMARK   73  A    between atoms: _172  and  _175
REMARK   74  A    between atoms: _175  and  _176
REMARK   75  A    between atoms: _176  and  _177
REMARK   76  A    between atoms: _182  and  _184
REMARK   77  A    between atoms: _184  and  _185
REMARK   78  A    between atoms: _187  and  _189
REMARK   79  A    between atoms: _189  and  _190
REMARK   80  A    between atoms: _193  and  _195
REMARK   81  A    between atoms: _195  and  _196
REMARK   82  A    between atoms: _195  and  _198
REMARK   83  A    between atoms: _198  and  _199
REMARK   84  A    between atoms: _202  and  _204
REMARK   85  A    between atoms: _204  and  _205
REMARK   86  A    between atoms: _204  and  _207
REMARK   87  A    between atoms: _210  and  _212
REMARK   88  A    between atoms: _212  and  _213
REMARK   89  A    between atoms: _212  and  _215
REMARK   90  A    between atoms: _219  and  _220
REMARK   91  A    between atoms: _226  and  _227
REMARK   92  A    between atoms: _233  and  _234
REMARK   93  A    between atoms: _239  and  _241
REMARK   94  A    between atoms: _241  and  _242
REMARK   95  A    between atoms: _241  and  _244
REMARK   96  A    between atoms: _247  and  _249
REMARK   97  A    between atoms: _249  and  _250
REMARK   98  A    between atoms: _249  and  _252
REMARK   99  A    between atoms: _252  and  _253
REMARK  100  A    between atoms: _253  and  _254
REMARK  101  A    between atoms: _254  and  _255
REMARK  102  A    between atoms: _255  and  _256
REMARK  103  A    between atoms: _260  and  _262
REMARK  104  A    between atoms: _262  and  _263
REMARK  105  A    between atoms: _262  and  _265
REMARK  106  A    between atoms: _265  and  _266
REMARK  107  A    between atoms: _268  and  _270
REMARK  108  A    between atoms: _270  and  _271
REMARK  109  A    between atoms: _270  and  _273
REMARK  110  A    between atoms: _273  and  _274
REMARK  111  A    between atoms: _274  and  _275
REMARK  112  A    between atoms: _280  and  _282
REMARK  113  A    between atoms: _282  and  _283
REMARK  114  A    between atoms: _282  and  _285
REMARK  115  A    between atoms: _285  and  _286
REMARK  116  A    between atoms: _288  and  _290
REMARK  117  A    between atoms: _290  and  _291
REMARK  118  A    between atoms: _290  and  _293
REMARK  119  A    between atoms: _293  and  _294
REMARK  120  A    between atoms: _297  and  _299
REMARK  121  A    between atoms: _299  and  _300
REMARK  122  A    between atoms: _299  and  _302
REMARK  123  A    between atoms: _305  and  _307
REMARK  124  A    between atoms: _307  and  _308
REMARK  125  A    between atoms: _310  and  _312
REMARK  126  A    between atoms: _312  and  _313
REMARK  127  A    between atoms: _316  and  _318
REMARK  128  A    between atoms: _318  and  _319
REMARK  129  A    between atoms: _321  and  _323
REMARK  130  A    between atoms: _323  and  _324
REMARK  131  A    between atoms: _323  and  _326
REMARK  132  A    between atoms: _326  and  _327
REMARK  133  A    between atoms: _330  and  _332
REMARK  134  A    between atoms: _332  and  _333
REMARK  135  A    between atoms: _332  and  _335
REMARK  136  A    between atoms: _335  and  _336
REMARK  137  A    between atoms: _338  and  _340
REMARK  138  A    between atoms: _340  and  _341
REMARK  139  A    between atoms: _340  and  _343
REMARK  140  A    between atoms: _343  and  _344
REMARK  141  A    between atoms: _344  and  _345
REMARK  142  A    between atoms: _347  and  _349
REMARK  143  A    between atoms: _349  and  _350
REMARK  144  A    between atoms: _349  and  _352
REMARK  145  A    between atoms: _355  and  _357
REMARK  146  A    between atoms: _357  and  _358
REMARK  147  A    between atoms: _357  and  _360
REMARK  148  A    between atoms: _360  and  _361
REMARK  149  A    between atoms: _361  and  _362
REMARK  150  A    between atoms: _364  and  _366
REMARK  151  A    between atoms: _366  and  _367
REMARK  152  A    between atoms: _366  and  _369
REMARK  153  A    between atoms: _372  and  _374
REMARK  154  A    between atoms: _374  and  _375
REMARK  155  A    between atoms: _374  and  _377
REMARK  156  A    between atoms: _377  and  _378
REMARK  157  A    between atoms: _378  and  _379
REMARK  158  A    between atoms: _379  and  _380
REMARK  159  A    between atoms: _389  and  _391
REMARK  160  A    between atoms: _391  and  _392
REMARK  161  A    between atoms: _391  and  _394
REMARK  162  A    between atoms: _394  and  _395
REMARK  163  A    between atoms: _401  and  _403
REMARK  164  A    between atoms: _403  and  _404
REMARK  165  A    between atoms: _406  and  _408
REMARK  166  A    between atoms: _408  and  _409
REMARK  167  A    between atoms: _408  and  _411
REMARK  168  A    between atoms: _414  and  _416
REMARK  169  A    between atoms: _416  and  _417
REMARK  170  A    between atoms: _420  and  _422
REMARK  171  A    between atoms: _422  and  _423
REMARK  172  A    between atoms: _426  and  _428
REMARK  173  A    between atoms: _428  and  _429
REMARK  174  A    between atoms: _431  and  _433
REMARK  175  A    between atoms: _433  and  _434
REMARK  176  A    between atoms: _433  and  _436
REMARK  177  A    between atoms: _436  and  _437
REMARK  178  A    between atoms: _439  and  _441
REMARK  179  A    between atoms: _441  and  _442
REMARK  180  A    between atoms: _445  and  _447
REMARK  181  A    between atoms: _447  and  _448
REMARK  182  A    between atoms: _451  and  _453
REMARK  183  A    between atoms: _453  and  _454
REMARK  184  A    between atoms: _453  and  _456
REMARK  185  A    between atoms: _456  and  _457
REMARK  186  A    between atoms: _460  and  _462
REMARK  187  A    between atoms: _462  and  _463
REMARK  188  A    between atoms: _462  and  _465
REMARK  189  A    between atoms: _465  and  _466
REMARK  190  A    between atoms: _469  and  _471
REMARK  191  A    between atoms: _471  and  _472
REMARK  192  A    between atoms: _471  and  _474
REMARK  193  A    between atoms: _474  and  _475
REMARK  194  A    between atoms: _478  and  _480
REMARK  195  A    between atoms: _480  and  _481
REMARK  196  A    between atoms: _480  and  _483
REMARK  197  A    between atoms: _483  and  _484
REMARK  198  A    between atoms: _487  and  _489
REMARK  199  A    between atoms: _489  and  _490
REMARK  200  A    between atoms: _489  and  _492
REMARK  201  A    between atoms: _492  and  _493
REMARK  202  A    between atoms: _496  and  _498
REMARK  203  A    between atoms: _498  and  _499
REMARK  204  A    between atoms: _498  and  _501
REMARK  205  A    between atoms: _501  and  _502
REMARK  206  A    between atoms: _502  and  _503
REMARK  207  A    between atoms: _506  and  _508
REMARK  208  A    between atoms: _508  and  _509
REMARK  209  A    between atoms: _511  and  _513
REMARK  210  A    between atoms: _513  and  _514
REMARK  211  A    between atoms: _513  and  _516
REMARK  212  A    between atoms: _516  and  _517
REMARK  213  A    between atoms: _517  and  _518
REMARK  214  A    between atoms: _518  and  _519
REMARK  215  A    between atoms: _519  and  _520
REMARK  216  A    between atoms: _524  and  _526
REMARK  217  A    between atoms: _526  and  _527
REMARK  218  A    between atoms: _526  and  _529
REMARK  219  A    between atoms: _529  and  _530
REMARK  220  A    between atoms: _530  and  _531
REMARK  221  A    between atoms: _537  and  _538
REMARK  222  A    between atoms: _543  and  _545
REMARK  223  A    between atoms: _545  and  _546
REMARK  224  A    between atoms: _545  and  _548
REMARK  225  A    between atoms: _548  and  _549
REMARK  226  A    between atoms: _549  and  _550
REMARK                            x       y       z     vdW  Elec       q    Type
REMARK                         _______ _______ _______ _____ _____    ______ ____
ROOT
ATOM      1  O   HOH     1       4.658 -13.220  20.721  0.00  0.00    +0.000 OA
ENDROOT
TORSDOF 0
REMARK  Name = ../refined-set-2016/3umo/3umo_pocket.pdb
REMARK  226 active torsions:
REMARK  status: ('A' for Active; 'I' for Inactive)
REMARK    1  A    between atoms: _1  and  _3
REMARK    2  A    between atoms: _3  and  _4
REMARK    3  A    between atoms: _6  and  _8
REMARK    4  A    between atoms: _8  and  _9
REMARK    5  A    between atoms: _8  and  _11
REMARK    6  A    between atoms: _11  and  _12
REMARK    7  A    between atoms: _17  and  _19
REMARK    8  A    between atoms: _19  and  _20
REMARK    9  A    between atoms: _19  and  _22
REMARK   10  A    between atoms: _22  and  _23
REMARK   11  A    between atoms: _23  and  _24
REMARK   12  A    between atoms: _24  and  _25
REMARK   13  A    between atoms: _34  and  _36
REMARK   14  A    between atoms: _36  and  _37
REMARK   15  A    between atoms: _36  and  _39
REMARK   16  A    between atoms: _39  and  _40
REMARK   17  A    between atoms: _42  and  _44
REMARK   18  A    between atoms: _44  and  _45
REMARK   19  A    between atoms: _44  and  _47
REMARK   20  A    between atoms: _47  and  _48
REMARK   21  A    between atoms: _51  and  _53
REMARK   22  A    between atoms: _53  and  _54
REMARK   23  A    between atoms: _53  and  _56
REMARK   24  A    between atoms: _56  and  _57
REMARK   25  A    between atoms: _59  and  _61
REMARK   26  A    between atoms: _61  and  _62
REMARK   27  A    between atoms: _61  and  _64
REMARK   28  A    between atoms: _64  and  _65
REMARK   29  A    between atoms: _65  and  _66
REMARK   30  A    between atoms: _66  and  _67
REMARK   31  A    between atoms: _67  and  _68
REMARK   32  A    between atoms: _73  and  _74
REMARK   33  A    between atoms: _79  and  _81
REMARK   34  A    between atoms: _81  and  _82
REMARK   35  A    between atoms: _81  and  _84
REMARK   36  A    between atoms: _84  and  _85
REMARK   37  A    between atoms: _90  and  _92
REMARK   38  A    between atoms: _92  and  _93
REMARK   39  A    between atoms: _92  and  _95
REMARK   40  A    between atoms: _95  and  _96
REMARK   41  A    between atoms: _96  and  _97
REMARK   42  A    between atoms: _102  and  _104
REMARK   43  A    between atoms: _104  and  _105
REMARK   44  A    between atoms: _104  and  _107
REMARK   45  A    between atoms: _107  and  _108
REMARK   46  A    between atoms: _108  and  _109
REMARK   47  A    between atoms: _109  and  _110
REMARK   48  A    between atoms: _110  and  _111
REMARK   49  A    between atoms: _115  and  _117
REMARK   50  A    between atoms: _117  and  _118
REMARK   51  A    between atoms: _117  and  _120
REMARK   52  A    between atoms: _120  and  _121
REMARK   53  A    between atoms: _121  and  _122
REMARK   54  A    between atoms: _125  and  _127
REMARK   55  A    between atoms: _127  and  _128
REMARK   56  A    between atoms: _127  and  _130
REMARK   57  A    between atoms: _133  and  _135
REMARK   58  A    between atoms: _135  and  _136
REMARK   59  A    between atoms: _135  and  _138
REMARK   60  A    between atoms: _141  and  _143
REMARK   61  A    between atoms: _143  and  _144
REMARK   62  A    between atoms: _143  and  _146
REMARK   63  A    between atoms: _146  and  _147
REMARK   64  A    between atoms: _149  and  _151
REMARK   65  A    between atoms: _151  and  _152
REMARK   66  A    between atoms: _151  and  _154
REMARK   67  A    between atoms: _154  and  _155
REMARK   68  A    between atoms: _158  and  _160
REMARK   69  A    between atoms: _160  and  _161
REMARK   70  A    between atoms: _164  and  _165
REMARK   71  A    between atoms: _170  and  _172
REMARK   72  A    between atoms: _172  and  _173
REMARK   73  A    between atoms: _172  and  _175
REMARK   74  A    between atoms: _175  and  _176
REMARK   75  A    between atoms: _176  and  _177
REMARK   76  A    between atoms: _182  and  _184
REMARK   77  A    between atoms: _184  and  _185
REMARK   78  A    between atoms: _187  and  _189
REMARK   79  A    between atoms: _189  and  _190
REMARK   80  A    between atoms: _193  and  _195
REMARK   81  A    between atoms: _195  and  _196
REMARK   82  A    between atoms: _195  and  _198
REMARK   83  A    between atoms: _198  and  _199
REMARK   84  A    between atoms: _202  and  _204
REMARK   85  A    between atoms: _204  and  _205
REMARK   86  A    between atoms: _204  and  _207
REMARK   87  A    between atoms: _210  and  _212
REMARK   88  A    between atoms: _212  and  _213
REMARK   89  A    between atoms: _212  and  _215
REMARK   90  A    between atoms: _219  and  _220
REMARK   91  A    between atoms: _226  and  _227
REMARK   92  A    between atoms: _233  and  _234
REMARK   93  A    between atoms: _239  and  _241
REMARK   94  A    between atoms: _241  and  _242
REMARK   95  A    between atoms: _241  and  _244
REMARK   96  A    between atoms: _247  and  _249
REMARK   97  A    between atoms: _249  and  _250
REMARK   98  A    between atoms: _249  and  _252
REMARK   99  A    between atoms: _252  and  _253
REMARK  100  A    between atoms: _253  and  _254
REMARK  101  A    between atoms: _254  and  _255
REMARK  102  A    between atoms: _255  and  _256
REMARK  103  A    between atoms: _260  and  _262
REMARK  104  A    between atoms: _262  and  _263
REMARK  105  A    between atoms: _262  and  _265
REMARK  106  A    between atoms: _265  and  _266
REMARK  107  A    between atoms: _268  and  _270
REMARK  108  A    between atoms: _270  and  _271
REMARK  109  A    between atoms: _270  and  _273
REMARK  110  A    between atoms: _273  and  _274
REMARK  111  A    between atoms: _274  and  _275
REMARK  112  A    between atoms: _280  and  _282
REMARK  113  A    between atoms: _282  and  _283
REMARK  114  A    between atoms: _282  and  _285
REMARK  115  A    between atoms: _285  and  _286
REMARK  116  A    between atoms: _288  and  _290
REMARK  117  A    between atoms: _290  and  _291
REMARK  118  A    between atoms: _290  and  _293
REMARK  119  A    between atoms: _293  and  _294
REMARK  120  A    between atoms: _297  and  _299
REMARK  121  A    between atoms: _299  and  _300
REMARK  122  A    between atoms: _299  and  _302
REMARK  123  A    between atoms: _305  and  _307
REMARK  124  A    between atoms: _307  and  _308
REMARK  125  A    between atoms: _310  and  _312
REMARK  126  A    between atoms: _312  and  _313
REMARK  127  A    between atoms: _316  and  _318
REMARK  128  A    between atoms: _318  and  _319
REMARK  129  A    between atoms: _321  and  _323
REMARK  130  A    between atoms: _323  and  _324
REMARK  131  A    between atoms: _323  and  _326
REMARK  132  A    between atoms: _326  and  _327
REMARK  133  A    between atoms: _330  and  _332
REMARK  134  A    between atoms: _332  and  _333
REMARK  135  A    between atoms: _332  and  _335
REMARK  136  A    between atoms: _335  and  _336
REMARK  137  A    between atoms: _338  and  _340
REMARK  138  A    between atoms: _340  and  _341
REMARK  139  A    between atoms: _340  and  _343
REMARK  140  A    between atoms: _343  and  _344
REMARK  141  A    between atoms: _344  and  _345
REMARK  142  A    between atoms: _347  and  _349
REMARK  143  A    between atoms: _349  and  _350
REMARK  144  A    between atoms: _349  and  _352
REMARK  145  A    between atoms: _355  and  _357
REMARK  146  A    between atoms: _357  and  _358
REMARK  147  A    between atoms: _357  and  _360
REMARK  148  A    between atoms: _360  and  _361
REMARK  149  A    between atoms: _361  and  _362
REMARK  150  A    between atoms: _364  and  _366
REMARK  151  A    between atoms: _366  and  _367
REMARK  152  A    between atoms: _366  and  _369
REMARK  153  A    between atoms: _372  and  _374
REMARK  154  A    between atoms: _374  and  _375
REMARK  155  A    between atoms: _374  and  _377
REMARK  156  A    between atoms: _377  and  _378
REMARK  157  A    between atoms: _378  and  _379
REMARK  158  A    between atoms: _379  and  _380
REMARK  159  A    between atoms: _389  and  _391
REMARK  160  A    between atoms: _391  and  _392
REMARK  161  A    between atoms: _391  and  _394
REMARK  162  A    between atoms: _394  and  _395
REMARK  163  A    between atoms: _401  and  _403
REMARK  164  A    between atoms: _403  and  _404
REMARK  165  A    between atoms: _406  and  _408
REMARK  166  A    between atoms: _408  and  _409
REMARK  167  A    between atoms: _408  and  _411
REMARK  168  A    between atoms: _414  and  _416
REMARK  169  A    between atoms: _416  and  _417
REMARK  170  A    between atoms: _420  and  _422
REMARK  171  A    between atoms: _422  and  _423
REMARK  172  A    between atoms: _426  and  _428
REMARK  173  A    between atoms: _428  and  _429
REMARK  174  A    between atoms: _431  and  _433
REMARK  175  A    between atoms: _433  and  _434
REMARK  176  A    between atoms: _433  and  _436
REMARK  177  A    between atoms: _436  and  _437
REMARK  178  A    between atoms: _439  and  _441
REMARK  179  A    between atoms: _441  and  _442
REMARK  180  A    between atoms: _445  and  _447
REMARK  181  A    between atoms: _447  and  _448
REMARK  182  A    between atoms: _451  and  _453
REMARK  183  A    between atoms: _453  and  _454
REMARK  184  A    between atoms: _453  and  _456
REMARK  185  A    between atoms: _456  and  _457
REMARK  186  A    between atoms: _460  and  _462
REMARK  187  A    between atoms: _462  and  _463
REMARK  188  A    between atoms: _462  and  _465
REMARK  189  A    between atoms: _465  and  _466
REMARK  190  A    between atoms: _469  and  _471
REMARK  191  A    between atoms: _471  and  _472
REMARK  192  A    between atoms: _471  and  _474
REMARK  193  A    between atoms: _474  and  _475
REMARK  194  A    between atoms: _478  and  _480
REMARK  195  A    between atoms: _480  and  _481
REMARK  196  A    between atoms: _480  and  _483
REMARK  197  A    between atoms: _483  and  _484
REMARK  198  A    between atoms: _487  and  _489
REMARK  199  A    between atoms: _489  and  _490
REMARK  200  A    between atoms: _489  and  _492
REMARK  201  A    between atoms: _492  and  _493
REMARK  202  A    between atoms: _496  and  _498
REMARK  203  A    between atoms: _498  and  _499
REMARK  204  A    between atoms: _498  and  _501
REMARK  205  A    between atoms: _501  and  _502
REMARK  206  A    between atoms: _502  and  _503
REMARK  207  A    between atoms: _506  and  _508
REMARK  208  A    between atoms: _508  and  _509
REMARK  209  A    between atoms: _511  and  _513
REMARK  210  A    between atoms: _513  and  _514
REMARK  211  A    between atoms: _513  and  _516
REMARK  212  A    between atoms: _516  and  _517
REMARK  213  A    between atoms: _517  and  _518
REMARK  214  A    between atoms: _518  and  _519
REMARK  215  A    between atoms: _519  and  _520
REMARK  216  A    between atoms: _524  and  _526
REMARK  217  A    between atoms: _526  and  _527
REMARK  218  A    between atoms: _526  and  _529
REMARK  219  A    between atoms: _529  and  _530
REMARK  220  A    between atoms: _530  and  _531
REMARK  221  A    between atoms: _537  and  _538
REMARK  222  A    between atoms: _543  and  _545
REMARK  223  A    between atoms: _545  and  _546
REMARK  224  A    between atoms: _545  and  _548
REMARK  225  A    between atoms: _548  and  _549
REMARK  226  A    between atoms: _549  and  _550
REMARK                            x       y       z     vdW  Elec       q    Type
REMARK                         _______ _______ _______ _____ _____    ______ ____
ROOT
ATOM      1  O   HOH     1       0.673 -14.721   7.392  0.00  0.00    +0.000 OA
ENDROOT
TORSDOF 0
REMARK  Name = ../refined-set-2016/3umo/3umo_pocket.pdb
REMARK  226 active torsions:
REMARK  status: ('A' for Active; 'I' for Inactive)
REMARK    1  A    between atoms: _1  and  _3
REMARK    2  A    between atoms: _3  and  _4
REMARK    3  A    between atoms: _6  and  _8
REMARK    4  A    between atoms: _8  and  _9
REMARK    5  A    between atoms: _8  and  _11
REMARK    6  A    between atoms: _11  and  _12
REMARK    7  A    between atoms: _17  and  _19
REMARK    8  A    between atoms: _19  and  _20
REMARK    9  A    between atoms: _19  and  _22
REMARK   10  A    between atoms: _22  and  _23
REMARK   11  A    between atoms: _23  and  _24
REMARK   12  A    between atoms: _24  and  _25
REMARK   13  A    between atoms: _34  and  _36
REMARK   14  A    between atoms: _36  and  _37
REMARK   15  A    between atoms: _36  and  _39
REMARK   16  A    between atoms: _39  and  _40
REMARK   17  A    between atoms: _42  and  _44
REMARK   18  A    between atoms: _44  and  _45
REMARK   19  A    between atoms: _44  and  _47
REMARK   20  A    between atoms: _47  and  _48
REMARK   21  A    between atoms: _51  and  _53
REMARK   22  A    between atoms: _53  and  _54
REMARK   23  A    between atoms: _53  and  _56
REMARK   24  A    between atoms: _56  and  _57
REMARK   25  A    between atoms: _59  and  _61
REMARK   26  A    between atoms: _61  and  _62
REMARK   27  A    between atoms: _61  and  _64
REMARK   28  A    between atoms: _64  and  _65
REMARK   29  A    between atoms: _65  and  _66
REMARK   30  A    between atoms: _66  and  _67
REMARK   31  A    between atoms: _67  and  _68
REMARK   32  A    between atoms: _73  and  _74
REMARK   33  A    between atoms: _79  and  _81
REMARK   34  A    between atoms: _81  and  _82
REMARK   35  A    between atoms: _81  and  _84
REMARK   36  A    between atoms: _84  and  _85
REMARK   37  A    between atoms: _90  and  _92
REMARK   38  A    between atoms: _92  and  _93
REMARK   39  A    between atoms: _92  and  _95
REMARK   40  A    between atoms: _95  and  _96
REMARK   41  A    between atoms: _96  and  _97
REMARK   42  A    between atoms: _102  and  _104
REMARK   43  A    between atoms: _104  and  _105
REMARK   44  A    between atoms: _104  and  _107
REMARK   45  A    between atoms: _107  and  _108
REMARK   46  A    between atoms: _108  and  _109
REMARK   47  A    between atoms: _109  and  _110
REMARK   48  A    between atoms: _110  and  _111
REMARK   49  A    between atoms: _115  and  _117
REMARK   50  A    between atoms: _117  and  _118
REMARK   51  A    between atoms: _117  and  _120
REMARK   52  A    between atoms: _120  and  _121
REMARK   53  A    between atoms: _121  and  _122
REMARK   54  A    between atoms: _125  and  _127
REMARK   55  A    between atoms: _127  and  _128
REMARK   56  A    between atoms: _127  and  _130
REMARK   57  A    between atoms: _133  and  _135
REMARK   58  A    between atoms: _135  and  _136
REMARK   59  A    between atoms: _135  and  _138
REMARK   60  A    between atoms: _141  and  _143
REMARK   61  A    between atoms: _143  and  _144
REMARK   62  A    between atoms: _143  and  _146
REMARK   63  A    between atoms: _146  and  _147
REMARK   64  A    between atoms: _149  and  _151
REMARK   65  A    between atoms: _151  and  _152
REMARK   66  A    between atoms: _151  and  _154
REMARK   67  A    between atoms: _154  and  _155
REMARK   68  A    between atoms: _158  and  _160
REMARK   69  A    between atoms: _160  and  _161
REMARK   70  A    between atoms: _164  and  _165
REMARK   71  A    between atoms: _170  and  _172
REMARK   72  A    between atoms: _172  and  _173
REMARK   73  A    between atoms: _172  and  _175
REMARK   74  A    between atoms: _175  and  _176
REMARK   75  A    between atoms: _176  and  _177
REMARK   76  A    between atoms: _182  and  _184
REMARK   77  A    between atoms: _184  and  _185
REMARK   78  A    between atoms: _187  and  _189
REMARK   79  A    between atoms: _189  and  _190
REMARK   80  A    between atoms: _193  and  _195
REMARK   81  A    between atoms: _195  and  _196
REMARK   82  A    between atoms: _195  and  _198
REMARK   83  A    between atoms: _198  and  _199
REMARK   84  A    between atoms: _202  and  _204
REMARK   85  A    between atoms: _204  and  _205
REMARK   86  A    between atoms: _204  and  _207
REMARK   87  A    between atoms: _210  and  _212
REMARK   88  A    between atoms: _212  and  _213
REMARK   89  A    between atoms: _212  and  _215
REMARK   90  A    between atoms: _219  and  _220
REMARK   91  A    between atoms: _226  and  _227
REMARK   92  A    between atoms: _233  and  _234
REMARK   93  A    between atoms: _239  and  _241
REMARK   94  A    between atoms: _241  and  _242
REMARK   95  A    between atoms: _241  and  _244
REMARK   96  A    between atoms: _247  and  _249
REMARK   97  A    between atoms: _249  and  _250
REMARK   98  A    between atoms: _249  and  _252
REMARK   99  A    between atoms: _252  and  _253
REMARK  100  A    between atoms: _253  and  _254
REMARK  101  A    between atoms: _254  and  _255
REMARK  102  A    between atoms: _255  and  _256
REMARK  103  A    between atoms: _260  and  _262
REMARK  104  A    between atoms: _262  and  _263
REMARK  105  A    between atoms: _262  and  _265
REMARK  106  A    between atoms: _265  and  _266
REMARK  107  A    between atoms: _268  and  _270
REMARK  108  A    between atoms: _270  and  _271
REMARK  109  A    between atoms: _270  and  _273
REMARK  110  A    between atoms: _273  and  _274
REMARK  111  A    between atoms: _274  and  _275
REMARK  112  A    between atoms: _280  and  _282
REMARK  113  A    between atoms: _282  and  _283
REMARK  114  A    between atoms: _282  and  _285
REMARK  115  A    between atoms: _285  and  _286
REMARK  116  A    between atoms: _288  and  _290
REMARK  117  A    between atoms: _290  and  _291
REMARK  118  A    between atoms: _290  and  _293
REMARK  119  A    between atoms: _293  and  _294
REMARK  120  A    between atoms: _297  and  _299
REMARK  121  A    between atoms: _299  and  _300
REMARK  122  A    between atoms: _299  and  _302
REMARK  123  A    between atoms: _305  and  _307
REMARK  124  A    between atoms: _307  and  _308
REMARK  125  A    between atoms: _310  and  _312
REMARK  126  A    between atoms: _312  and  _313
REMARK  127  A    between atoms: _316  and  _318
REMARK  128  A    between atoms: _318  and  _319
REMARK  129  A    between atoms: _321  and  _323
REMARK  130  A    between atoms: _323  and  _324
REMARK  131  A    between atoms: _323  and  _326
REMARK  132  A    between atoms: _326  and  _327
REMARK  133  A    between atoms: _330  and  _332
REMARK  134  A    between atoms: _332  and  _333
REMARK  135  A    between atoms: _332  and  _335
REMARK  136  A    between atoms: _335  and  _336
REMARK  137  A    between atoms: _338  and  _340
REMARK  138  A    between atoms: _340  and  _341
REMARK  139  A    between atoms: _340  and  _343
REMARK  140  A    between atoms: _343  and  _344
REMARK  141  A    between atoms: _344  and  _345
REMARK  142  A    between atoms: _347  and  _349
REMARK  143  A    between atoms: _349  and  _350
REMARK  144  A    between atoms: _349  and  _352
REMARK  145  A    between atoms: _355  and  _357
REMARK  146  A    between atoms: _357  and  _358
REMARK  147  A    between atoms: _357  and  _360
REMARK  148  A    between atoms: _360  and  _361
REMARK  149  A    between atoms: _361  and  _362
REMARK  150  A    between atoms: _364  and  _366
REMARK  151  A    between atoms: _366  and  _367
REMARK  152  A    between atoms: _366  and  _369
REMARK  153  A    between atoms: _372  and  _374
REMARK  154  A    between atoms: _374  and  _375
REMARK  155  A    between atoms: _374  and  _377
REMARK  156  A    between atoms: _377  and  _378
REMARK  157  A    between atoms: _378  and  _379
REMARK  158  A    between atoms: _379  and  _380
REMARK  159  A    between atoms: _389  and  _391
REMARK  160  A    between atoms: _391  and  _392
REMARK  161  A    between atoms: _391  and  _394
REMARK  162  A    between atoms: _394  and  _395
REMARK  163  A    between atoms: _401  and  _403
REMARK  164  A    between atoms: _403  and  _404
REMARK  165  A    between atoms: _406  and  _408
REMARK  166  A    between atoms: _408  and  _409
REMARK  167  A    between atoms: _408  and  _411
REMARK  168  A    between atoms: _414  and  _416
REMARK  169  A    between atoms: _416  and  _417
REMARK  170  A    between atoms: _420  and  _422
REMARK  171  A    between atoms: _422  and  _423
REMARK  172  A    between atoms: _426  and  _428
REMARK  173  A    between atoms: _428  and  _429
REMARK  174  A    between atoms: _431  and  _433
REMARK  175  A    between atoms: _433  and  _434
REMARK  176  A    between atoms: _433  and  _436
REMARK  177  A    between atoms: _436  and  _437
REMARK  178  A    between atoms: _439  and  _441
REMARK  179  A    between atoms: _441  and  _442
REMARK  180  A    between atoms: _445  and  _447
REMARK  181  A    between atoms: _447  and  _448
REMARK  182  A    between atoms: _451  and  _453
REMARK  183  A    between atoms: _453  and  _454
REMARK  184  A    between atoms: _453  and  _456
REMARK  185  A    between atoms: _456  and  _457
REMARK  186  A    between atoms: _460  and  _462
REMARK  187  A    between atoms: _462  and  _463
REMARK  188  A    between atoms: _462  and  _465
REMARK  189  A    between atoms: _465  and  _466
REMARK  190  A    between atoms: _469  and  _471
REMARK  191  A    between atoms: _471  and  _472
REMARK  192  A    between atoms: _471  and  _474
REMARK  193  A    between atoms: _474  and  _475
REMARK  194  A    between atoms: _478  and  _480
REMARK  195  A    between atoms: _480  and  _481
REMARK  196  A    between atoms: _480  and  _483
REMARK  197  A    between atoms: _483  and  _484
REMARK  198  A    between atoms: _487  and  _489
REMARK  199  A    between atoms: _489  and  _490
REMARK  200  A    between atoms: _489  and  _492
REMARK  201  A    between atoms: _492  and  _493
REMARK  202  A    between atoms: _496  and  _498
REMARK  203  A    between atoms: _498  and  _499
REMARK  204  A    between atoms: _498  and  _501
REMARK  205  A    between atoms: _501  and  _502
REMARK  206  A    between atoms: _502  and  _503
REMARK  207  A    between atoms: _506  and  _508
REMARK  208  A    between atoms: _508  and  _509
REMARK  209  A    between atoms: _511  and  _513
REMARK  210  A    between atoms: _513  and  _514
REMARK  211  A    between atoms: _513  and  _516
REMARK  212  A    between atoms: _516  and  _517
REMARK  213  A    between atoms: _517  and  _518
REMARK  214  A    between atoms: _518  and  _519
REMARK  215  A    between atoms: _519  and  _520
REMARK  216  A    between atoms: _524  and  _526
REMARK  217  A    between atoms: _526  and  _527
REMARK  218  A    between atoms: _526  and  _529
REMARK  219  A    between atoms: _529  and  _530
REMARK  220  A    between atoms: _530  and  _531
REMARK  221  A    between atoms: _537  and  _538
REMARK  222  A    between atoms: _543  and  _545
REMARK  223  A    between atoms: _545  and  _546
REMARK  224  A    between atoms: _545  and  _548
REMARK  225  A    between atoms: _548  and  _549
REMARK  226  A    between atoms: _549  and  _550
REMARK                            x       y       z     vdW  Elec       q    Type
REMARK                         _______ _______ _______ _____ _____    ______ ____
ROOT
ATOM      1  O   HOH     1       8.744 -14.064  19.656  0.00  0.00    +0.000 OA
ENDROOT
TORSDOF 0
REMARK  Name = ../refined-set-2016/3umo/3umo_pocket.pdb
REMARK  226 active torsions:
REMARK  status: ('A' for Active; 'I' for Inactive)
REMARK    1  A    between atoms: _1  and  _3
REMARK    2  A    between atoms: _3  and  _4
REMARK    3  A    between atoms: _6  and  _8
REMARK    4  A    between atoms: _8  and  _9
REMARK    5  A    between atoms: _8  and  _11
REMARK    6  A    between atoms: _11  and  _12
REMARK    7  A    between atoms: _17  and  _19
REMARK    8  A    between atoms: _19  and  _20
REMARK    9  A    between atoms: _19  and  _22
REMARK   10  A    between atoms: _22  and  _23
REMARK   11  A    between atoms: _23  and  _24
REMARK   12  A    between atoms: _24  and  _25
REMARK   13  A    between atoms: _34  and  _36
REMARK   14  A    between atoms: _36  and  _37
REMARK   15  A    between atoms: _36  and  _39
REMARK   16  A    between atoms: _39  and  _40
REMARK   17  A    between atoms: _42  and  _44
REMARK   18  A    between atoms: _44  and  _45
REMARK   19  A    between atoms: _44  and  _47
REMARK   20  A    between atoms: _47  and  _48
REMARK   21  A    between atoms: _51  and  _53
REMARK   22  A    between atoms: _53  and  _54
REMARK   23  A    between atoms: _53  and  _56
REMARK   24  A    between atoms: _56  and  _57
REMARK   25  A    between atoms: _59  and  _61
REMARK   26  A    between atoms: _61  and  _62
REMARK   27  A    between atoms: _61  and  _64
REMARK   28  A    between atoms: _64  and  _65
REMARK   29  A    between atoms: _65  and  _66
REMARK   30  A    between atoms: _66  and  _67
REMARK   31  A    between atoms: _67  and  _68
REMARK   32  A    between atoms: _73  and  _74
REMARK   33  A    between atoms: _79  and  _81
REMARK   34  A    between atoms: _81  and  _82
REMARK   35  A    between atoms: _81  and  _84
REMARK   36  A    between atoms: _84  and  _85
REMARK   37  A    between atoms: _90  and  _92
REMARK   38  A    between atoms: _92  and  _93
REMARK   39  A    between atoms: _92  and  _95
REMARK   40  A    between atoms: _95  and  _96
REMARK   41  A    between atoms: _96  and  _97
REMARK   42  A    between atoms: _102  and  _104
REMARK   43  A    between atoms: _104  and  _105
REMARK   44  A    between atoms: _104  and  _107
REMARK   45  A    between atoms: _107  and  _108
REMARK   46  A    between atoms: _108  and  _109
REMARK   47  A    between atoms: _109  and  _110
REMARK   48  A    between atoms: _110  and  _111
REMARK   49  A    between atoms: _115  and  _117
REMARK   50  A    between atoms: _117  and  _118
REMARK   51  A    between atoms: _117  and  _120
REMARK   52  A    between atoms: _120  and  _121
REMARK   53  A    between atoms: _121  and  _122
REMARK   54  A    between atoms: _125  and  _127
REMARK   55  A    between atoms: _127  and  _128
REMARK   56  A    between atoms: _127  and  _130
REMARK   57  A    between atoms: _133  and  _135
REMARK   58  A    between atoms: _135  and  _136
REMARK   59  A    between atoms: _135  and  _138
REMARK   60  A    between atoms: _141  and  _143
REMARK   61  A    between atoms: _143  and  _144
REMARK   62  A    between atoms: _143  and  _146
REMARK   63  A    between atoms: _146  and  _147
REMARK   64  A    between atoms: _149  and  _151
REMARK   65  A    between atoms: _151  and  _152
REMARK   66  A    between atoms: _151  and  _154
REMARK   67  A    between atoms: _154  and  _155
REMARK   68  A    between atoms: _158  and  _160
REMARK   69  A    between atoms: _160  and  _161
REMARK   70  A    between atoms: _164  and  _165
REMARK   71  A    between atoms: _170  and  _172
REMARK   72  A    between atoms: _172  and  _173
REMARK   73  A    between atoms: _172  and  _175
REMARK   74  A    between atoms: _175  and  _176
REMARK   75  A    between atoms: _176  and  _177
REMARK   76  A    between atoms: _182  and  _184
REMARK   77  A    between atoms: _184  and  _185
REMARK   78  A    between atoms: _187  and  _189
REMARK   79  A    between atoms: _189  and  _190
REMARK   80  A    between atoms: _193  and  _195
REMARK   81  A    between atoms: _195  and  _196
REMARK   82  A    between atoms: _195  and  _198
REMARK   83  A    between atoms: _198  and  _199
REMARK   84  A    between atoms: _202  and  _204
REMARK   85  A    between atoms: _204  and  _205
REMARK   86  A    between atoms: _204  and  _207
REMARK   87  A    between atoms: _210  and  _212
REMARK   88  A    between atoms: _212  and  _213
REMARK   89  A    between atoms: _212  and  _215
REMARK   90  A    between atoms: _219  and  _220
REMARK   91  A    between atoms: _226  and  _227
REMARK   92  A    between atoms: _233  and  _234
REMARK   93  A    between atoms: _239  and  _241
REMARK   94  A    between atoms: _241  and  _242
REMARK   95  A    between atoms: _241  and  _244
REMARK   96  A    between atoms: _247  and  _249
REMARK   97  A    between atoms: _249  and  _250
REMARK   98  A    between atoms: _249  and  _252
REMARK   99  A    between atoms: _252  and  _253
REMARK  100  A    between atoms: _253  and  _254
REMARK  101  A    between atoms: _254  and  _255
REMARK  102  A    between atoms: _255  and  _256
REMARK  103  A    between atoms: _260  and  _262
REMARK  104  A    between atoms: _262  and  _263
REMARK  105  A    between atoms: _262  and  _265
REMARK  106  A    between atoms: _265  and  _266
REMARK  107  A    between atoms: _268  and  _270
REMARK  108  A    between atoms: _270  and  _271
REMARK  109  A    between atoms: _270  and  _273
REMARK  110  A    between atoms: _273  and  _274
REMARK  111  A    between atoms: _274  and  _275
REMARK  112  A    between atoms: _280  and  _282
REMARK  113  A    between atoms: _282  and  _283
REMARK  114  A    between atoms: _282  and  _285
REMARK  115  A    between atoms: _285  and  _286
REMARK  116  A    between atoms: _288  and  _290
REMARK  117  A    between atoms: _290  and  _291
REMARK  118  A    between atoms: _290  and  _293
REMARK  119  A    between atoms: _293  and  _294
REMARK  120  A    between atoms: _297  and  _299
REMARK  121  A    between atoms: _299  and  _300
REMARK  122  A    between atoms: _299  and  _302
REMARK  123  A    between atoms: _305  and  _307
REMARK  124  A    between atoms: _307  and  _308
REMARK  125  A    between atoms: _310  and  _312
REMARK  126  A    between atoms: _312  and  _313
REMARK  127  A    between atoms: _316  and  _318
REMARK  128  A    between atoms: _318  and  _319
REMARK  129  A    between atoms: _321  and  _323
REMARK  130  A    between atoms: _323  and  _324
REMARK  131  A    between atoms: _323  and  _326
REMARK  132  A    between atoms: _326  and  _327
REMARK  133  A    between atoms: _330  and  _332
REMARK  134  A    between atoms: _332  and  _333
REMARK  135  A    between atoms: _332  and  _335
REMARK  136  A    between atoms: _335  and  _336
REMARK  137  A    between atoms: _338  and  _340
REMARK  138  A    between atoms: _340  and  _341
REMARK  139  A    between atoms: _340  and  _343
REMARK  140  A    between atoms: _343  and  _344
REMARK  141  A    between atoms: _344  and  _345
REMARK  142  A    between atoms: _347  and  _349
REMARK  143  A    between atoms: _349  and  _350
REMARK  144  A    between atoms: _349  and  _352
REMARK  145  A    between atoms: _355  and  _357
REMARK  146  A    between atoms: _357  and  _358
REMARK  147  A    between atoms: _357  and  _360
REMARK  148  A    between atoms: _360  and  _361
REMARK  149  A    between atoms: _361  and  _362
REMARK  150  A    between atoms: _364  and  _366
REMARK  151  A    between atoms: _366  and  _367
REMARK  152  A    between atoms: _366  and  _369
REMARK  153  A    between atoms: _372  and  _374
REMARK  154  A    between atoms: _374  and  _375
REMARK  155  A    between atoms: _374  and  _377
REMARK  156  A    between atoms: _377  and  _378
REMARK  157  A    between atoms: _378  and  _379
REMARK  158  A    between atoms: _379  and  _380
REMARK  159  A    between atoms: _389  and  _391
REMARK  160  A    between atoms: _391  and  _392
REMARK  161  A    between atoms: _391  and  _394
REMARK  162  A    between atoms: _394  and  _395
REMARK  163  A    between atoms: _401  and  _403
REMARK  164  A    between atoms: _403  and  _404
REMARK  165  A    between atoms: _406  and  _408
REMARK  166  A    between atoms: _408  and  _409
REMARK  167  A    between atoms: _408  and  _411
REMARK  168  A    between atoms: _414  and  _416
REMARK  169  A    between atoms: _416  and  _417
REMARK  170  A    between atoms: _420  and  _422
REMARK  171  A    between atoms: _422  and  _423
REMARK  172  A    between atoms: _426  and  _428
REMARK  173  A    between atoms: _428  and  _429
REMARK  174  A    between atoms: _431  and  _433
REMARK  175  A    between atoms: _433  and  _434
REMARK  176  A    between atoms: _433  and  _436
REMARK  177  A    between atoms: _436  and  _437
REMARK  178  A    between atoms: _439  and  _441
REMARK  179  A    between atoms: _441  and  _442
REMARK  180  A    between atoms: _445  and  _447
REMARK  181  A    between atoms: _447  and  _448
REMARK  182  A    between atoms: _451  and  _453
REMARK  183  A    between atoms: _453  and  _454
REMARK  184  A    between atoms: _453  and  _456
REMARK  185  A    between atoms: _456  and  _457
REMARK  186  A    between atoms: _460  and  _462
REMARK  187  A    between atoms: _462  and  _463
REMARK  188  A    between atoms: _462  and  _465
REMARK  189  A    between atoms: _465  and  _466
REMARK  190  A    between atoms: _469  and  _471
REMARK  191  A    between atoms: _471  and  _472
REMARK  192  A    between atoms: _471  and  _474
REMARK  193  A    between atoms: _474  and  _475
REMARK  194  A    between atoms: _478  and  _480
REMARK  195  A    between atoms: _480  and  _481
REMARK  196  A    between atoms: _480  and  _483
REMARK  197  A    between atoms: _483  and  _484
REMARK  198  A    between atoms: _487  and  _489
REMARK  199  A    between atoms: _489  and  _490
REMARK  200  A    between atoms: _489  and  _492
REMARK  201  A    between atoms: _492  and  _493
REMARK  202  A    between atoms: _496  and  _498
REMARK  203  A    between atoms: _498  and  _499
REMARK  204  A    between atoms: _498  and  _501
REMARK  205  A    between atoms: _501  and  _502
REMARK  206  A    between atoms: _502  and  _503
REMARK  207  A    between atoms: _506  and  _508
REMARK  208  A    between atoms: _508  and  _509
REMARK  209  A    between atoms: _511  and  _513
REMARK  210  A    between atoms: _513  and  _514
REMARK  211  A    between atoms: _513  and  _516
REMARK  212  A    between atoms: _516  and  _517
REMARK  213  A    between atoms: _517  and  _518
REMARK  214  A    between atoms: _518  and  _519
REMARK  215  A    between atoms: _519  and  _520
REMARK  216  A    between atoms: _524  and  _526
REMARK  217  A    between atoms: _526  and  _527
REMARK  218  A    between atoms: _526  and  _529
REMARK  219  A    between atoms: _529  and  _530
REMARK  220  A    between atoms: _530  and  _531
REMARK  221  A    between atoms: _537  and  _538
REMARK  222  A    between atoms: _543  and  _545
REMARK  223  A    between atoms: _545  and  _546
REMARK  224  A    between atoms: _545  and  _548
REMARK  225  A    between atoms: _548  and  _549
REMARK  226  A    between atoms: _549  and  _550
REMARK                            x       y       z     vdW  Elec       q    Type
REMARK                         _______ _______ _______ _____ _____    ______ ____
ROOT
ATOM      1  O   HOH     1       0.805 -21.659   6.277  0.00  0.00    +0.000 OA
ENDROOT
TORSDOF 0
REMARK  Name = ../refined-set-2016/3umo/3umo_pocket.pdb
REMARK  226 active torsions:
REMARK  status: ('A' for Active; 'I' for Inactive)
REMARK    1  A    between atoms: _1  and  _3
REMARK    2  A    between atoms: _3  and  _4
REMARK    3  A    between atoms: _6  and  _8
REMARK    4  A    between atoms: _8  and  _9
REMARK    5  A    between atoms: _8  and  _11
REMARK    6  A    between atoms: _11  and  _12
REMARK    7  A    between atoms: _17  and  _19
REMARK    8  A    between atoms: _19  and  _20
REMARK    9  A    between atoms: _19  and  _22
REMARK   10  A    between atoms: _22  and  _23
REMARK   11  A    between atoms: _23  and  _24
REMARK   12  A    between atoms: _24  and  _25
REMARK   13  A    between atoms: _34  and  _36
REMARK   14  A    between atoms: _36  and  _37
REMARK   15  A    between atoms: _36  and  _39
REMARK   16  A    between atoms: _39  and  _40
REMARK   17  A    between atoms: _42  and  _44
REMARK   18  A    between atoms: _44  and  _45
REMARK   19  A    between atoms: _44  and  _47
REMARK   20  A    between atoms: _47  and  _48
REMARK   21  A    between atoms: _51  and  _53
REMARK   22  A    between atoms: _53  and  _54
REMARK   23  A    between atoms: _53  and  _56
REMARK   24  A    between atoms: _56  and  _57
REMARK   25  A    between atoms: _59  and  _61
REMARK   26  A    between atoms: _61  and  _62
REMARK   27  A    between atoms: _61  and  _64
REMARK   28  A    between atoms: _64  and  _65
REMARK   29  A    between atoms: _65  and  _66
REMARK   30  A    between atoms: _66  and  _67
REMARK   31  A    between atoms: _67  and  _68
REMARK   32  A    between atoms: _73  and  _74
REMARK   33  A    between atoms: _79  and  _81
REMARK   34  A    between atoms: _81  and  _82
REMARK   35  A    between atoms: _81  and  _84
REMARK   36  A    between atoms: _84  and  _85
REMARK   37  A    between atoms: _90  and  _92
REMARK   38  A    between atoms: _92  and  _93
REMARK   39  A    between atoms: _92  and  _95
REMARK   40  A    between atoms: _95  and  _96
REMARK   41  A    between atoms: _96  and  _97
REMARK   42  A    between atoms: _102  and  _104
REMARK   43  A    between atoms: _104  and  _105
REMARK   44  A    between atoms: _104  and  _107
REMARK   45  A    between atoms: _107  and  _108
REMARK   46  A    between atoms: _108  and  _109
REMARK   47  A    between atoms: _109  and  _110
REMARK   48  A    between atoms: _110  and  _111
REMARK   49  A    between atoms: _115  and  _117
REMARK   50  A    between atoms: _117  and  _118
REMARK   51  A    between atoms: _117  and  _120
REMARK   52  A    between atoms: _120  and  _121
REMARK   53  A    between atoms: _121  and  _122
REMARK   54  A    between atoms: _125  and  _127
REMARK   55  A    between atoms: _127  and  _128
REMARK   56  A    between atoms: _127  and  _130
REMARK   57  A    between atoms: _133  and  _135
REMARK   58  A    between atoms: _135  and  _136
REMARK   59  A    between atoms: _135  and  _138
REMARK   60  A    between atoms: _141  and  _143
REMARK   61  A    between atoms: _143  and  _144
REMARK   62  A    between atoms: _143  and  _146
REMARK   63  A    between atoms: _146  and  _147
REMARK   64  A    between atoms: _149  and  _151
REMARK   65  A    between atoms: _151  and  _152
REMARK   66  A    between atoms: _151  and  _154
REMARK   67  A    between atoms: _154  and  _155
REMARK   68  A    between atoms: _158  and  _160
REMARK   69  A    between atoms: _160  and  _161
REMARK   70  A    between atoms: _164  and  _165
REMARK   71  A    between atoms: _170  and  _172
REMARK   72  A    between atoms: _172  and  _173
REMARK   73  A    between atoms: _172  and  _175
REMARK   74  A    between atoms: _175  and  _176
REMARK   75  A    between atoms: _176  and  _177
REMARK   76  A    between atoms: _182  and  _184
REMARK   77  A    between atoms: _184  and  _185
REMARK   78  A    between atoms: _187  and  _189
REMARK   79  A    between atoms: _189  and  _190
REMARK   80  A    between atoms: _193  and  _195
REMARK   81  A    between atoms: _195  and  _196
REMARK   82  A    between atoms: _195  and  _198
REMARK   83  A    between atoms: _198  and  _199
REMARK   84  A    between atoms: _202  and  _204
REMARK   85  A    between atoms: _204  and  _205
REMARK   86  A    between atoms: _204  and  _207
REMARK   87  A    between atoms: _210  and  _212
REMARK   88  A    between atoms: _212  and  _213
REMARK   89  A    between atoms: _212  and  _215
REMARK   90  A    between atoms: _219  and  _220
REMARK   91  A    between atoms: _226  and  _227
REMARK   92  A    between atoms: _233  and  _234
REMARK   93  A    between atoms: _239  and  _241
REMARK   94  A    between atoms: _241  and  _242
REMARK   95  A    between atoms: _241  and  _244
REMARK   96  A    between atoms: _247  and  _249
REMARK   97  A    between atoms: _249  and  _250
REMARK   98  A    between atoms: _249  and  _252
REMARK   99  A    between atoms: _252  and  _253
REMARK  100  A    between atoms: _253  and  _254
REMARK  101  A    between atoms: _254  and  _255
REMARK  102  A    between atoms: _255  and  _256
REMARK  103  A    between atoms: _260  and  _262
REMARK  104  A    between atoms: _262  and  _263
REMARK  105  A    between atoms: _262  and  _265
REMARK  106  A    between atoms: _265  and  _266
REMARK  107  A    between atoms: _268  and  _270
REMARK  108  A    between atoms: _270  and  _271
REMARK  109  A    between atoms: _270  and  _273
REMARK  110  A    between atoms: _273  and  _274
REMARK  111  A    between atoms: _274  and  _275
REMARK  112  A    between atoms: _280  and  _282
REMARK  113  A    between atoms: _282  and  _283
REMARK  114  A    between atoms: _282  and  _285
REMARK  115  A    between atoms: _285  and  _286
REMARK  116  A    between atoms: _288  and  _290
REMARK  117  A    between atoms: _290  and  _291
REMARK  118  A    between atoms: _290  and  _293
REMARK  119  A    between atoms: _293  and  _294
REMARK  120  A    between atoms: _297  and  _299
REMARK  121  A    between atoms: _299  and  _300
REMARK  122  A    between atoms: _299  and  _302
REMARK  123  A    between atoms: _305  and  _307
REMARK  124  A    between atoms: _307  and  _308
REMARK  125  A    between atoms: _310  and  _312
REMARK  126  A    between atoms: _312  and  _313
REMARK  127  A    between atoms: _316  and  _318
REMARK  128  A    between atoms: _318  and  _319
REMARK  129  A    between atoms: _321  and  _323
REMARK  130  A    between atoms: _323  and  _324
REMARK  131  A    between atoms: _323  and  _326
REMARK  132  A    between atoms: _326  and  _327
REMARK  133  A    between atoms: _330  and  _332
REMARK  134  A    between atoms: _332  and  _333
REMARK  135  A    between atoms: _332  and  _335
REMARK  136  A    between atoms: _335  and  _336
REMARK  137  A    between atoms: _338  and  _340
REMARK  138  A    between atoms: _340  and  _341
REMARK  139  A    between atoms: _340  and  _343
REMARK  140  A    between atoms: _343  and  _344
REMARK  141  A    between atoms: _344  and  _345
REMARK  142  A    between atoms: _347  and  _349
REMARK  143  A    between atoms: _349  and  _350
REMARK  144  A    between atoms: _349  and  _352
REMARK  145  A    between atoms: _355  and  _357
REMARK  146  A    between atoms: _357  and  _358
REMARK  147  A    between atoms: _357  and  _360
REMARK  148  A    between atoms: _360  and  _361
REMARK  149  A    between atoms: _361  and  _362
REMARK  150  A    between atoms: _364  and  _366
REMARK  151  A    between atoms: _366  and  _367
REMARK  152  A    between atoms: _366  and  _369
REMARK  153  A    between atoms: _372  and  _374
REMARK  154  A    between atoms: _374  and  _375
REMARK  155  A    between atoms: _374  and  _377
REMARK  156  A    between atoms: _377  and  _378
REMARK  157  A    between atoms: _378  and  _379
REMARK  158  A    between atoms: _379  and  _380
REMARK  159  A    between atoms: _389  and  _391
REMARK  160  A    between atoms: _391  and  _392
REMARK  161  A    between atoms: _391  and  _394
REMARK  162  A    between atoms: _394  and  _395
REMARK  163  A    between atoms: _401  and  _403
REMARK  164  A    between atoms: _403  and  _404
REMARK  165  A    between atoms: _406  and  _408
REMARK  166  A    between atoms: _408  and  _409
REMARK  167  A    between atoms: _408  and  _411
REMARK  168  A    between atoms: _414  and  _416
REMARK  169  A    between atoms: _416  and  _417
REMARK  170  A    between atoms: _420  and  _422
REMARK  171  A    between atoms: _422  and  _423
REMARK  172  A    between atoms: _426  and  _428
REMARK  173  A    between atoms: _428  and  _429
REMARK  174  A    between atoms: _431  and  _433
REMARK  175  A    between atoms: _433  and  _434
REMARK  176  A    between atoms: _433  and  _436
REMARK  177  A    between atoms: _436  and  _437
REMARK  178  A    between atoms: _439  and  _441
REMARK  179  A    between atoms: _441  and  _442
REMARK  180  A    between atoms: _445  and  _447
REMARK  181  A    between atoms: _447  and  _448
REMARK  182  A    between atoms: _451  and  _453
REMARK  183  A    between atoms: _453  and  _454
REMARK  184  A    between atoms: _453  and  _456
REMARK  185  A    between atoms: _456  and  _457
REMARK  186  A    between atoms: _460  and  _462
REMARK  187  A    between atoms: _462  and  _463
REMARK  188  A    between atoms: _462  and  _465
REMARK  189  A    between atoms: _465  and  _466
REMARK  190  A    between atoms: _469  and  _471
REMARK  191  A    between atoms: _471  and  _472
REMARK  192  A    between atoms: _471  and  _474
REMARK  193  A    between atoms: _474  and  _475
REMARK  194  A    between atoms: _478  and  _480
REMARK  195  A    between atoms: _480  and  _481
REMARK  196  A    between atoms: _480  and  _483
REMARK  197  A    between atoms: _483  and  _484
REMARK  198  A    between atoms: _487  and  _489
REMARK  199  A    between atoms: _489  and  _490
REMARK  200  A    between atoms: _489  and  _492
REMARK  201  A    between atoms: _492  and  _493
REMARK  202  A    between atoms: _496  and  _498
REMARK  203  A    between atoms: _498  and  _499
REMARK  204  A    between atoms: _498  and  _501
REMARK  205  A    between atoms: _501  and  _502
REMARK  206  A    between atoms: _502  and  _503
REMARK  207  A    between atoms: _506  and  _508
REMARK  208  A    between atoms: _508  and  _509
REMARK  209  A    between atoms: _511  and  _513
REMARK  210  A    between atoms: _513  and  _514
REMARK  211  A    between atoms: _513  and  _516
REMARK  212  A    between atoms: _516  and  _517
REMARK  213  A    between atoms: _517  and  _518
REMARK  214  A    between atoms: _518  and  _519
REMARK  215  A    between atoms: _519  and  _520
REMARK  216  A    between atoms: _524  and  _526
REMARK  217  A    between atoms: _526  and  _527
REMARK  218  A    between atoms: _526  and  _529
REMARK  219  A    between atoms: _529  and  _530
REMARK  220  A    between atoms: _530  and  _531
REMARK  221  A    between atoms: _537  and  _538
REMARK  222  A    between atoms: _543  and  _545
REMARK  223  A    between atoms: _545  and  _546
REMARK  224  A    between atoms: _545  and  _548
REMARK  225  A    between atoms: _548  and  _549
REMARK  226  A    between atoms: _549  and  _550
REMARK                            x       y       z     vdW  Elec       q    Type
REMARK                         _______ _______ _______ _____ _____    ______ ____
ROOT
ATOM      1  O   HOH     1       9.888 -17.579  19.776  0.00  0.00    +0.000 OA
ENDROOT
TORSDOF 0
REMARK  Name = ../refined-set-2016/3umo/3umo_pocket.pdb
REMARK  226 active torsions:
REMARK  status: ('A' for Active; 'I' for Inactive)
REMARK    1  A    between atoms: _1  and  _3
REMARK    2  A    between atoms: _3  and  _4
REMARK    3  A    between atoms: _6  and  _8
REMARK    4  A    between atoms: _8  and  _9
REMARK    5  A    between atoms: _8  and  _11
REMARK    6  A    between atoms: _11  and  _12
REMARK    7  A    between atoms: _17  and  _19
REMARK    8  A    between atoms: _19  and  _20
REMARK    9  A    between atoms: _19  and  _22
REMARK   10  A    between atoms: _22  and  _23
REMARK   11  A    between atoms: _23  and  _24
REMARK   12  A    between atoms: _24  and  _25
REMARK   13  A    between atoms: _34  and  _36
REMARK   14  A    between atoms: _36  and  _37
REMARK   15  A    between atoms: _36  and  _39
REMARK   16  A    between atoms: _39  and  _40
REMARK   17  A    between atoms: _42  and  _44
REMARK   18  A    between atoms: _44  and  _45
REMARK   19  A    between atoms: _44  and  _47
REMARK   20  A    between atoms: _47  and  _48
REMARK   21  A    between atoms: _51  and  _53
REMARK   22  A    between atoms: _53  and  _54
REMARK   23  A    between atoms: _53  and  _56
REMARK   24  A    between atoms: _56  and  _57
REMARK   25  A    between atoms: _59  and  _61
REMARK   26  A    between atoms: _61  and  _62
REMARK   27  A    between atoms: _61  and  _64
REMARK   28  A    between atoms: _64  and  _65
REMARK   29  A    between atoms: _65  and  _66
REMARK   30  A    between atoms: _66  and  _67
REMARK   31  A    between atoms: _67  and  _68
REMARK   32  A    between atoms: _73  and  _74
REMARK   33  A    between atoms: _79  and  _81
REMARK   34  A    between atoms: _81  and  _82
REMARK   35  A    between atoms: _81  and  _84
REMARK   36  A    between atoms: _84  and  _85
REMARK   37  A    between atoms: _90  and  _92
REMARK   38  A    between atoms: _92  and  _93
REMARK   39  A    between atoms: _92  and  _95
REMARK   40  A    between atoms: _95  and  _96
REMARK   41  A    between atoms: _96  and  _97
REMARK   42  A    between atoms: _102  and  _104
REMARK   43  A    between atoms: _104  and  _105
REMARK   44  A    between atoms: _104  and  _107
REMARK   45  A    between atoms: _107  and  _108
REMARK   46  A    between atoms: _108  and  _109
REMARK   47  A    between atoms: _109  and  _110
REMARK   48  A    between atoms: _110  and  _111
REMARK   49  A    between atoms: _115  and  _117
REMARK   50  A    between atoms: _117  and  _118
REMARK   51  A    between atoms: _117  and  _120
REMARK   52  A    between atoms: _120  and  _121
REMARK   53  A    between atoms: _121  and  _122
REMARK   54  A    between atoms: _125  and  _127
REMARK   55  A    between atoms: _127  and  _128
REMARK   56  A    between atoms: _127  and  _130
REMARK   57  A    between atoms: _133  and  _135
REMARK   58  A    between atoms: _135  and  _136
REMARK   59  A    between atoms: _135  and  _138
REMARK   60  A    between atoms: _141  and  _143
REMARK   61  A    between atoms: _143  and  _144
REMARK   62  A    between atoms: _143  and  _146
REMARK   63  A    between atoms: _146  and  _147
REMARK   64  A    between atoms: _149  and  _151
REMARK   65  A    between atoms: _151  and  _152
REMARK   66  A    between atoms: _151  and  _154
REMARK   67  A    between atoms: _154  and  _155
REMARK   68  A    between atoms: _158  and  _160
REMARK   69  A    between atoms: _160  and  _161
REMARK   70  A    between atoms: _164  and  _165
REMARK   71  A    between atoms: _170  and  _172
REMARK   72  A    between atoms: _172  and  _173
REMARK   73  A    between atoms: _172  and  _175
REMARK   74  A    between atoms: _175  and  _176
REMARK   75  A    between atoms: _176  and  _177
REMARK   76  A    between atoms: _182  and  _184
REMARK   77  A    between atoms: _184  and  _185
REMARK   78  A    between atoms: _187  and  _189
REMARK   79  A    between atoms: _189  and  _190
REMARK   80  A    between atoms: _193  and  _195
REMARK   81  A    between atoms: _195  and  _196
REMARK   82  A    between atoms: _195  and  _198
REMARK   83  A    between atoms: _198  and  _199
REMARK   84  A    between atoms: _202  and  _204
REMARK   85  A    between atoms: _204  and  _205
REMARK   86  A    between atoms: _204  and  _207
REMARK   87  A    between atoms: _210  and  _212
REMARK   88  A    between atoms: _212  and  _213
REMARK   89  A    between atoms: _212  and  _215
REMARK   90  A    between atoms: _219  and  _220
REMARK   91  A    between atoms: _226  and  _227
REMARK   92  A    between atoms: _233  and  _234
REMARK   93  A    between atoms: _239  and  _241
REMARK   94  A    between atoms: _241  and  _242
REMARK   95  A    between atoms: _241  and  _244
REMARK   96  A    between atoms: _247  and  _249
REMARK   97  A    between atoms: _249  and  _250
REMARK   98  A    between atoms: _249  and  _252
REMARK   99  A    between atoms: _252  and  _253
REMARK  100  A    between atoms: _253  and  _254
REMARK  101  A    between atoms: _254  and  _255
REMARK  102  A    between atoms: _255  and  _256
REMARK  103  A    between atoms: _260  and  _262
REMARK  104  A    between atoms: _262  and  _263
REMARK  105  A    between atoms: _262  and  _265
REMARK  106  A    between atoms: _265  and  _266
REMARK  107  A    between atoms: _268  and  _270
REMARK  108  A    between atoms: _270  and  _271
REMARK  109  A    between atoms: _270  and  _273
REMARK  110  A    between atoms: _273  and  _274
REMARK  111  A    between atoms: _274  and  _275
REMARK  112  A    between atoms: _280  and  _282
REMARK  113  A    between atoms: _282  and  _283
REMARK  114  A    between atoms: _282  and  _285
REMARK  115  A    between atoms: _285  and  _286
REMARK  116  A    between atoms: _288  and  _290
REMARK  117  A    between atoms: _290  and  _291
REMARK  118  A    between atoms: _290  and  _293
REMARK  119  A    between atoms: _293  and  _294
REMARK  120  A    between atoms: _297  and  _299
REMARK  121  A    between atoms: _299  and  _300
REMARK  122  A    between atoms: _299  and  _302
REMARK  123  A    between atoms: _305  and  _307
REMARK  124  A    between atoms: _307  and  _308
REMARK  125  A    between atoms: _310  and  _312
REMARK  126  A    between atoms: _312  and  _313
REMARK  127  A    between atoms: _316  and  _318
REMARK  128  A    between atoms: _318  and  _319
REMARK  129  A    between atoms: _321  and  _323
REMARK  130  A    between atoms: _323  and  _324
REMARK  131  A    between atoms: _323  and  _326
REMARK  132  A    between atoms: _326  and  _327
REMARK  133  A    between atoms: _330  and  _332
REMARK  134  A    between atoms: _332  and  _333
REMARK  135  A    between atoms: _332  and  _335
REMARK  136  A    between atoms: _335  and  _336
REMARK  137  A    between atoms: _338  and  _340
REMARK  138  A    between atoms: _340  and  _341
REMARK  139  A    between atoms: _340  and  _343
REMARK  140  A    between atoms: _343  and  _344
REMARK  141  A    between atoms: _344  and  _345
REMARK  142  A    between atoms: _347  and  _349
REMARK  143  A    between atoms: _349  and  _350
REMARK  144  A    between atoms: _349  and  _352
REMARK  145  A    between atoms: _355  and  _357
REMARK  146  A    between atoms: _357  and  _358
REMARK  147  A    between atoms: _357  and  _360
REMARK  148  A    between atoms: _360  and  _361
REMARK  149  A    between atoms: _361  and  _362
REMARK  150  A    between atoms: _364  and  _366
REMARK  151  A    between atoms: _366  and  _367
REMARK  152  A    between atoms: _366  and  _369
REMARK  153  A    between atoms: _372  and  _374
REMARK  154  A    between atoms: _374  and  _375
REMARK  155  A    between atoms: _374  and  _377
REMARK  156  A    between atoms: _377  and  _378
REMARK  157  A    between atoms: _378  and  _379
REMARK  158  A    between atoms: _379  and  _380
REMARK  159  A    between atoms: _389  and  _391
REMARK  160  A    between atoms: _391  and  _392
REMARK  161  A    between atoms: _391  and  _394
REMARK  162  A    between atoms: _394  and  _395
REMARK  163  A    between atoms: _401  and  _403
REMARK  164  A    between atoms: _403  and  _404
REMARK  165  A    between atoms: _406  and  _408
REMARK  166  A    between atoms: _408  and  _409
REMARK  167  A    between atoms: _408  and  _411
REMARK  168  A    between atoms: _414  and  _416
REMARK  169  A    between atoms: _416  and  _417
REMARK  170  A    between atoms: _420  and  _422
REMARK  171  A    between atoms: _422  and  _423
REMARK  172  A    between atoms: _426  and  _428
REMARK  173  A    between atoms: _428  and  _429
REMARK  174  A    between atoms: _431  and  _433
REMARK  175  A    between atoms: _433  and  _434
REMARK  176  A    between atoms: _433  and  _436
REMARK  177  A    between atoms: _436  and  _437
REMARK  178  A    between atoms: _439  and  _441
REMARK  179  A    between atoms: _441  and  _442
REMARK  180  A    between atoms: _445  and  _447
REMARK  181  A    between atoms: _447  and  _448
REMARK  182  A    between atoms: _451  and  _453
REMARK  183  A    between atoms: _453  and  _454
REMARK  184  A    between atoms: _453  and  _456
REMARK  185  A    between atoms: _456  and  _457
REMARK  186  A    between atoms: _460  and  _462
REMARK  187  A    between atoms: _462  and  _463
REMARK  188  A    between atoms: _462  and  _465
REMARK  189  A    between atoms: _465  and  _466
REMARK  190  A    between atoms: _469  and  _471
REMARK  191  A    between atoms: _471  and  _472
REMARK  192  A    between atoms: _471  and  _474
REMARK  193  A    between atoms: _474  and  _475
REMARK  194  A    between atoms: _478  and  _480
REMARK  195  A    between atoms: _480  and  _481
REMARK  196  A    between atoms: _480  and  _483
REMARK  197  A    between atoms: _483  and  _484
REMARK  198  A    between atoms: _487  and  _489
REMARK  199  A    between atoms: _489  and  _490
REMARK  200  A    between atoms: _489  and  _492
REMARK  201  A    between atoms: _492  and  _493
REMARK  202  A    between atoms: _496  and  _498
REMARK  203  A    between atoms: _498  and  _499
REMARK  204  A    between atoms: _498  and  _501
REMARK  205  A    between atoms: _501  and  _502
REMARK  206  A    between atoms: _502  and  _503
REMARK  207  A    between atoms: _506  and  _508
REMARK  208  A    between atoms: _508  and  _509
REMARK  209  A    between atoms: _511  and  _513
REMARK  210  A    between atoms: _513  and  _514
REMARK  211  A    between atoms: _513  and  _516
REMARK  212  A    between atoms: _516  and  _517
REMARK  213  A    between atoms: _517  and  _518
REMARK  214  A    between atoms: _518  and  _519
REMARK  215  A    between atoms: _519  and  _520
REMARK  216  A    between atoms: _524  and  _526
REMARK  217  A    between atoms: _526  and  _527
REMARK  218  A    between atoms: _526  and  _529
REMARK  219  A    between atoms: _529  and  _530
REMARK  220  A    between atoms: _530  and  _531
REMARK  221  A    between atoms: _537  and  _538
REMARK  222  A    between atoms: _543  and  _545
REMARK  223  A    between atoms: _545  and  _546
REMARK  224  A    between atoms: _545  and  _548
REMARK  225  A    between atoms: _548  and  _549
REMARK  226  A    between atoms: _549  and  _550
REMARK                            x       y       z     vdW  Elec       q    Type
REMARK                         _______ _______ _______ _____ _____    ______ ____
ROOT
ATOM      1  O   HOH     1       5.764 -18.668   4.196  0.00  0.00    +0.000 OA
ENDROOT
TORSDOF 0
REMARK  Name = ../refined-set-2016/3umo/3umo_pocket.pdb
REMARK  226 active torsions:
REMARK  status: ('A' for Active; 'I' for Inactive)
REMARK    1  A    between atoms: _1  and  _3
REMARK    2  A    between atoms: _3  and  _4
REMARK    3  A    between atoms: _6  and  _8
REMARK    4  A    between atoms: _8  and  _9
REMARK    5  A    between atoms: _8  and  _11
REMARK    6  A    between atoms: _11  and  _12
REMARK    7  A    between atoms: _17  and  _19
REMARK    8  A    between atoms: _19  and  _20
REMARK    9  A    between atoms: _19  and  _22
REMARK   10  A    between atoms: _22  and  _23
REMARK   11  A    between atoms: _23  and  _24
REMARK   12  A    between atoms: _24  and  _25
REMARK   13  A    between atoms: _34  and  _36
REMARK   14  A    between atoms: _36  and  _37
REMARK   15  A    between atoms: _36  and  _39
REMARK   16  A    between atoms: _39  and  _40
REMARK   17  A    between atoms: _42  and  _44
REMARK   18  A    between atoms: _44  and  _45
REMARK   19  A    between atoms: _44  and  _47
REMARK   20  A    between atoms: _47  and  _48
REMARK   21  A    between atoms: _51  and  _53
REMARK   22  A    between atoms: _53  and  _54
REMARK   23  A    between atoms: _53  and  _56
REMARK   24  A    between atoms: _56  and  _57
REMARK   25  A    between atoms: _59  and  _61
REMARK   26  A    between atoms: _61  and  _62
REMARK   27  A    between atoms: _61  and  _64
REMARK   28  A    between atoms: _64  and  _65
REMARK   29  A    between atoms: _65  and  _66
REMARK   30  A    between atoms: _66  and  _67
REMARK   31  A    between atoms: _67  and  _68
REMARK   32  A    between atoms: _73  and  _74
REMARK   33  A    between atoms: _79  and  _81
REMARK   34  A    between atoms: _81  and  _82
REMARK   35  A    between atoms: _81  and  _84
REMARK   36  A    between atoms: _84  and  _85
REMARK   37  A    between atoms: _90  and  _92
REMARK   38  A    between atoms: _92  and  _93
REMARK   39  A    between atoms: _92  and  _95
REMARK   40  A    between atoms: _95  and  _96
REMARK   41  A    between atoms: _96  and  _97
REMARK   42  A    between atoms: _102  and  _104
REMARK   43  A    between atoms: _104  and  _105
REMARK   44  A    between atoms: _104  and  _107
REMARK   45  A    between atoms: _107  and  _108
REMARK   46  A    between atoms: _108  and  _109
REMARK   47  A    between atoms: _109  and  _110
REMARK   48  A    between atoms: _110  and  _111
REMARK   49  A    between atoms: _115  and  _117
REMARK   50  A    between atoms: _117  and  _118
REMARK   51  A    between atoms: _117  and  _120
REMARK   52  A    between atoms: _120  and  _121
REMARK   53  A    between atoms: _121  and  _122
REMARK   54  A    between atoms: _125  and  _127
REMARK   55  A    between atoms: _127  and  _128
REMARK   56  A    between atoms: _127  and  _130
REMARK   57  A    between atoms: _133  and  _135
REMARK   58  A    between atoms: _135  and  _136
REMARK   59  A    between atoms: _135  and  _138
REMARK   60  A    between atoms: _141  and  _143
REMARK   61  A    between atoms: _143  and  _144
REMARK   62  A    between atoms: _143  and  _146
REMARK   63  A    between atoms: _146  and  _147
REMARK   64  A    between atoms: _149  and  _151
REMARK   65  A    between atoms: _151  and  _152
REMARK   66  A    between atoms: _151  and  _154
REMARK   67  A    between atoms: _154  and  _155
REMARK   68  A    between atoms: _158  and  _160
REMARK   69  A    between atoms: _160  and  _161
REMARK   70  A    between atoms: _164  and  _165
REMARK   71  A    between atoms: _170  and  _172
REMARK   72  A    between atoms: _172  and  _173
REMARK   73  A    between atoms: _172  and  _175
REMARK   74  A    between atoms: _175  and  _176
REMARK   75  A    between atoms: _176  and  _177
REMARK   76  A    between atoms: _182  and  _184
REMARK   77  A    between atoms: _184  and  _185
REMARK   78  A    between atoms: _187  and  _189
REMARK   79  A    between atoms: _189  and  _190
REMARK   80  A    between atoms: _193  and  _195
REMARK   81  A    between atoms: _195  and  _196
REMARK   82  A    between atoms: _195  and  _198
REMARK   83  A    between atoms: _198  and  _199
REMARK   84  A    between atoms: _202  and  _204
REMARK   85  A    between atoms: _204  and  _205
REMARK   86  A    between atoms: _204  and  _207
REMARK   87  A    between atoms: _210  and  _212
REMARK   88  A    between atoms: _212  and  _213
REMARK   89  A    between atoms: _212  and  _215
REMARK   90  A    between atoms: _219  and  _220
REMARK   91  A    between atoms: _226  and  _227
REMARK   92  A    between atoms: _233  and  _234
REMARK   93  A    between atoms: _239  and  _241
REMARK   94  A    between atoms: _241  and  _242
REMARK   95  A    between atoms: _241  and  _244
REMARK   96  A    between atoms: _247  and  _249
REMARK   97  A    between atoms: _249  and  _250
REMARK   98  A    between atoms: _249  and  _252
REMARK   99  A    between atoms: _252  and  _253
REMARK  100  A    between atoms: _253  and  _254
REMARK  101  A    between atoms: _254  and  _255
REMARK  102  A    between atoms: _255  and  _256
REMARK  103  A    between atoms: _260  and  _262
REMARK  104  A    between atoms: _262  and  _263
REMARK  105  A    between atoms: _262  and  _265
REMARK  106  A    between atoms: _265  and  _266
REMARK  107  A    between atoms: _268  and  _270
REMARK  108  A    between atoms: _270  and  _271
REMARK  109  A    between atoms: _270  and  _273
REMARK  110  A    between atoms: _273  and  _274
REMARK  111  A    between atoms: _274  and  _275
REMARK  112  A    between atoms: _280  and  _282
REMARK  113  A    between atoms: _282  and  _283
REMARK  114  A    between atoms: _282  and  _285
REMARK  115  A    between atoms: _285  and  _286
REMARK  116  A    between atoms: _288  and  _290
REMARK  117  A    between atoms: _290  and  _291
REMARK  118  A    between atoms: _290  and  _293
REMARK  119  A    between atoms: _293  and  _294
REMARK  120  A    between atoms: _297  and  _299
REMARK  121  A    between atoms: _299  and  _300
REMARK  122  A    between atoms: _299  and  _302
REMARK  123  A    between atoms: _305  and  _307
REMARK  124  A    between atoms: _307  and  _308
REMARK  125  A    between atoms: _310  and  _312
REMARK  126  A    between atoms: _312  and  _313
REMARK  127  A    between atoms: _316  and  _318
REMARK  128  A    between atoms: _318  and  _319
REMARK  129  A    between atoms: _321  and  _323
REMARK  130  A    between atoms: _323  and  _324
REMARK  131  A    between atoms: _323  and  _326
REMARK  132  A    between atoms: _326  and  _327
REMARK  133  A    between atoms: _330  and  _332
REMARK  134  A    between atoms: _332  and  _333
REMARK  135  A    between atoms: _332  and  _335
REMARK  136  A    between atoms: _335  and  _336
REMARK  137  A    between atoms: _338  and  _340
REMARK  138  A    between atoms: _340  and  _341
REMARK  139  A    between atoms: _340  and  _343
REMARK  140  A    between atoms: _343  and  _344
REMARK  141  A    between atoms: _344  and  _345
REMARK  142  A    between atoms: _347  and  _349
REMARK  143  A    between atoms: _349  and  _350
REMARK  144  A    between atoms: _349  and  _352
REMARK  145  A    between atoms: _355  and  _357
REMARK  146  A    between atoms: _357  and  _358
REMARK  147  A    between atoms: _357  and  _360
REMARK  148  A    between atoms: _360  and  _361
REMARK  149  A    between atoms: _361  and  _362
REMARK  150  A    between atoms: _364  and  _366
REMARK  151  A    between atoms: _366  and  _367
REMARK  152  A    between atoms: _366  and  _369
REMARK  153  A    between atoms: _372  and  _374
REMARK  154  A    between atoms: _374  and  _375
REMARK  155  A    between atoms: _374  and  _377
REMARK  156  A    between atoms: _377  and  _378
REMARK  157  A    between atoms: _378  and  _379
REMARK  158  A    between atoms: _379  and  _380
REMARK  159  A    between atoms: _389  and  _391
REMARK  160  A    between atoms: _391  and  _392
REMARK  161  A    between atoms: _391  and  _394
REMARK  162  A    between atoms: _394  and  _395
REMARK  163  A    between atoms: _401  and  _403
REMARK  164  A    between atoms: _403  and  _404
REMARK  165  A    between atoms: _406  and  _408
REMARK  166  A    between atoms: _408  and  _409
REMARK  167  A    between atoms: _408  and  _411
REMARK  168  A    between atoms: _414  and  _416
REMARK  169  A    between atoms: _416  and  _417
REMARK  170  A    between atoms: _420  and  _422
REMARK  171  A    between atoms: _422  and  _423
REMARK  172  A    between atoms: _426  and  _428
REMARK  173  A    between atoms: _428  and  _429
REMARK  174  A    between atoms: _431  and  _433
REMARK  175  A    between atoms: _433  and  _434
REMARK  176  A    between atoms: _433  and  _436
REMARK  177  A    between atoms: _436  and  _437
REMARK  178  A    between atoms: _439  and  _441
REMARK  179  A    between atoms: _441  and  _442
REMARK  180  A    between atoms: _445  and  _447
REMARK  181  A    between atoms: _447  and  _448
REMARK  182  A    between atoms: _451  and  _453
REMARK  183  A    between atoms: _453  and  _454
REMARK  184  A    between atoms: _453  and  _456
REMARK  185  A    between atoms: _456  and  _457
REMARK  186  A    between atoms: _460  and  _462
REMARK  187  A    between atoms: _462  and  _463
REMARK  188  A    between atoms: _462  and  _465
REMARK  189  A    between atoms: _465  and  _466
REMARK  190  A    between atoms: _469  and  _471
REMARK  191  A    between atoms: _471  and  _472
REMARK  192  A    between atoms: _471  and  _474
REMARK  193  A    between atoms: _474  and  _475
REMARK  194  A    between atoms: _478  and  _480
REMARK  195  A    between atoms: _480  and  _481
REMARK  196  A    between atoms: _480  and  _483
REMARK  197  A    between atoms: _483  and  _484
REMARK  198  A    between atoms: _487  and  _489
REMARK  199  A    between atoms: _489  and  _490
REMARK  200  A    between atoms: _489  and  _492
REMARK  201  A    between atoms: _492  and  _493
REMARK  202  A    between atoms: _496  and  _498
REMARK  203  A    between atoms: _498  and  _499
REMARK  204  A    between atoms: _498  and  _501
REMARK  205  A    between atoms: _501  and  _502
REMARK  206  A    between atoms: _502  and  _503
REMARK  207  A    between atoms: _506  and  _508
REMARK  208  A    between atoms: _508  and  _509
REMARK  209  A    between atoms: _511  and  _513
REMARK  210  A    between atoms: _513  and  _514
REMARK  211  A    between atoms: _513  and  _516
REMARK  212  A    between atoms: _516  and  _517
REMARK  213  A    between atoms: _517  and  _518
REMARK  214  A    between atoms: _518  and  _519
REMARK  215  A    between atoms: _519  and  _520
REMARK  216  A    between atoms: _524  and  _526
REMARK  217  A    between atoms: _526  and  _527
REMARK  218  A    between atoms: _526  and  _529
REMARK  219  A    between atoms: _529  and  _530
REMARK  220  A    between atoms: _530  and  _531
REMARK  221  A    between atoms: _537  and  _538
REMARK  222  A    between atoms: _543  and  _545
REMARK  223  A    between atoms: _545  and  _546
REMARK  224  A    between atoms: _545  and  _548
REMARK  225  A    between atoms: _548  and  _549
REMARK  226  A    between atoms: _549  and  _550
REMARK                            x       y       z     vdW  Elec       q    Type
REMARK                         _______ _______ _______ _____ _____    ______ ____
ROOT
ATOM      1  O   HOH     1       6.470  -9.165  18.208  0.00  0.00    +0.000 OA
ENDROOT
TORSDOF 0
REMARK  Name = ../refined-set-2016/3umo/3umo_pocket.pdb
REMARK  226 active torsions:
REMARK  status: ('A' for Active; 'I' for Inactive)
REMARK    1  A    between atoms: _1  and  _3
REMARK    2  A    between atoms: _3  and  _4
REMARK    3  A    between atoms: _6  and  _8
REMARK    4  A    between atoms: _8  and  _9
REMARK    5  A    between atoms: _8  and  _11
REMARK    6  A    between atoms: _11  and  _12
REMARK    7  A    between atoms: _17  and  _19
REMARK    8  A    between atoms: _19  and  _20
REMARK    9  A    between atoms: _19  and  _22
REMARK   10  A    between atoms: _22  and  _23
REMARK   11  A    between atoms: _23  and  _24
REMARK   12  A    between atoms: _24  and  _25
REMARK   13  A    between atoms: _34  and  _36
REMARK   14  A    between atoms: _36  and  _37
REMARK   15  A    between atoms: _36  and  _39
REMARK   16  A    between atoms: _39  and  _40
REMARK   17  A    between atoms: _42  and  _44
REMARK   18  A    between atoms: _44  and  _45
REMARK   19  A    between atoms: _44  and  _47
REMARK   20  A    between atoms: _47  and  _48
REMARK   21  A    between atoms: _51  and  _53
REMARK   22  A    between atoms: _53  and  _54
REMARK   23  A    between atoms: _53  and  _56
REMARK   24  A    between atoms: _56  and  _57
REMARK   25  A    between atoms: _59  and  _61
REMARK   26  A    between atoms: _61  and  _62
REMARK   27  A    between atoms: _61  and  _64
REMARK   28  A    between atoms: _64  and  _65
REMARK   29  A    between atoms: _65  and  _66
REMARK   30  A    between atoms: _66  and  _67
REMARK   31  A    between atoms: _67  and  _68
REMARK   32  A    between atoms: _73  and  _74
REMARK   33  A    between atoms: _79  and  _81
REMARK   34  A    between atoms: _81  and  _82
REMARK   35  A    between atoms: _81  and  _84
REMARK   36  A    between atoms: _84  and  _85
REMARK   37  A    between atoms: _90  and  _92
REMARK   38  A    between atoms: _92  and  _93
REMARK   39  A    between atoms: _92  and  _95
REMARK   40  A    between atoms: _95  and  _96
REMARK   41  A    between atoms: _96  and  _97
REMARK   42  A    between atoms: _102  and  _104
REMARK   43  A    between atoms: _104  and  _105
REMARK   44  A    between atoms: _104  and  _107
REMARK   45  A    between atoms: _107  and  _108
REMARK   46  A    between atoms: _108  and  _109
REMARK   47  A    between atoms: _109  and  _110
REMARK   48  A    between atoms: _110  and  _111
REMARK   49  A    between atoms: _115  and  _117
REMARK   50  A    between atoms: _117  and  _118
REMARK   51  A    between atoms: _117  and  _120
REMARK   52  A    between atoms: _120  and  _121
REMARK   53  A    between atoms: _121  and  _122
REMARK   54  A    between atoms: _125  and  _127
REMARK   55  A    between atoms: _127  and  _128
REMARK   56  A    between atoms: _127  and  _130
REMARK   57  A    between atoms: _133  and  _135
REMARK   58  A    between atoms: _135  and  _136
REMARK   59  A    between atoms: _135  and  _138
REMARK   60  A    between atoms: _141  and  _143
REMARK   61  A    between atoms: _143  and  _144
REMARK   62  A    between atoms: _143  and  _146
REMARK   63  A    between atoms: _146  and  _147
REMARK   64  A    between atoms: _149  and  _151
REMARK   65  A    between atoms: _151  and  _152
REMARK   66  A    between atoms: _151  and  _154
REMARK   67  A    between atoms: _154  and  _155
REMARK   68  A    between atoms: _158  and  _160
REMARK   69  A    between atoms: _160  and  _161
REMARK   70  A    between atoms: _164  and  _165
REMARK   71  A    between atoms: _170  and  _172
REMARK   72  A    between atoms: _172  and  _173
REMARK   73  A    between atoms: _172  and  _175
REMARK   74  A    between atoms: _175  and  _176
REMARK   75  A    between atoms: _176  and  _177
REMARK   76  A    between atoms: _182  and  _184
REMARK   77  A    between atoms: _184  and  _185
REMARK   78  A    between atoms: _187  and  _189
REMARK   79  A    between atoms: _189  and  _190
REMARK   80  A    between atoms: _193  and  _195
REMARK   81  A    between atoms: _195  and  _196
REMARK   82  A    between atoms: _195  and  _198
REMARK   83  A    between atoms: _198  and  _199
REMARK   84  A    between atoms: _202  and  _204
REMARK   85  A    between atoms: _204  and  _205
REMARK   86  A    between atoms: _204  and  _207
REMARK   87  A    between atoms: _210  and  _212
REMARK   88  A    between atoms: _212  and  _213
REMARK   89  A    between atoms: _212  and  _215
REMARK   90  A    between atoms: _219  and  _220
REMARK   91  A    between atoms: _226  and  _227
REMARK   92  A    between atoms: _233  and  _234
REMARK   93  A    between atoms: _239  and  _241
REMARK   94  A    between atoms: _241  and  _242
REMARK   95  A    between atoms: _241  and  _244
REMARK   96  A    between atoms: _247  and  _249
REMARK   97  A    between atoms: _249  and  _250
REMARK   98  A    between atoms: _249  and  _252
REMARK   99  A    between atoms: _252  and  _253
REMARK  100  A    between atoms: _253  and  _254
REMARK  101  A    between atoms: _254  and  _255
REMARK  102  A    between atoms: _255  and  _256
REMARK  103  A    between atoms: _260  and  _262
REMARK  104  A    between atoms: _262  and  _263
REMARK  105  A    between atoms: _262  and  _265
REMARK  106  A    between atoms: _265  and  _266
REMARK  107  A    between atoms: _268  and  _270
REMARK  108  A    between atoms: _270  and  _271
REMARK  109  A    between atoms: _270  and  _273
REMARK  110  A    between atoms: _273  and  _274
REMARK  111  A    between atoms: _274  and  _275
REMARK  112  A    between atoms: _280  and  _282
REMARK  113  A    between atoms: _282  and  _283
REMARK  114  A    between atoms: _282  and  _285
REMARK  115  A    between atoms: _285  and  _286
REMARK  116  A    between atoms: _288  and  _290
REMARK  117  A    between atoms: _290  and  _291
REMARK  118  A    between atoms: _290  and  _293
REMARK  119  A    between atoms: _293  and  _294
REMARK  120  A    between atoms: _297  and  _299
REMARK  121  A    between atoms: _299  and  _300
REMARK  122  A    between atoms: _299  and  _302
REMARK  123  A    between atoms: _305  and  _307
REMARK  124  A    between atoms: _307  and  _308
REMARK  125  A    between atoms: _310  and  _312
REMARK  126  A    between atoms: _312  and  _313
REMARK  127  A    between atoms: _316  and  _318
REMARK  128  A    between atoms: _318  and  _319
REMARK  129  A    between atoms: _321  and  _323
REMARK  130  A    between atoms: _323  and  _324
REMARK  131  A    between atoms: _323  and  _326
REMARK  132  A    between atoms: _326  and  _327
REMARK  133  A    between atoms: _330  and  _332
REMARK  134  A    between atoms: _332  and  _333
REMARK  135  A    between atoms: _332  and  _335
REMARK  136  A    between atoms: _335  and  _336
REMARK  137  A    between atoms: _338  and  _340
REMARK  138  A    between atoms: _340  and  _341
REMARK  139  A    between atoms: _340  and  _343
REMARK  140  A    between atoms: _343  and  _344
REMARK  141  A    between atoms: _344  and  _345
REMARK  142  A    between atoms: _347  and  _349
REMARK  143  A    between atoms: _349  and  _350
REMARK  144  A    between atoms: _349  and  _352
REMARK  145  A    between atoms: _355  and  _357
REMARK  146  A    between atoms: _357  and  _358
REMARK  147  A    between atoms: _357  and  _360
REMARK  148  A    between atoms: _360  and  _361
REMARK  149  A    between atoms: _361  and  _362
REMARK  150  A    between atoms: _364  and  _366
REMARK  151  A    between atoms: _366  and  _367
REMARK  152  A    between atoms: _366  and  _369
REMARK  153  A    between atoms: _372  and  _374
REMARK  154  A    between atoms: _374  and  _375
REMARK  155  A    between atoms: _374  and  _377
REMARK  156  A    between atoms: _377  and  _378
REMARK  157  A    between atoms: _378  and  _379
REMARK  158  A    between atoms: _379  and  _380
REMARK  159  A    between atoms: _389  and  _391
REMARK  160  A    between atoms: _391  and  _392
REMARK  161  A    between atoms: _391  and  _394
REMARK  162  A    between atoms: _394  and  _395
REMARK  163  A    between atoms: _401  and  _403
REMARK  164  A    between atoms: _403  and  _404
REMARK  165  A    between atoms: _406  and  _408
REMARK  166  A    between atoms: _408  and  _409
REMARK  167  A    between atoms: _408  and  _411
REMARK  168  A    between atoms: _414  and  _416
REMARK  169  A    between atoms: _416  and  _417
REMARK  170  A    between atoms: _420  and  _422
REMARK  171  A    between atoms: _422  and  _423
REMARK  172  A    between atoms: _426  and  _428
REMARK  173  A    between atoms: _428  and  _429
REMARK  174  A    between atoms: _431  and  _433
REMARK  175  A    between atoms: _433  and  _434
REMARK  176  A    between atoms: _433  and  _436
REMARK  177  A    between atoms: _436  and  _437
REMARK  178  A    between atoms: _439  and  _441
REMARK  179  A    between atoms: _441  and  _442
REMARK  180  A    between atoms: _445  and  _447
REMARK  181  A    between atoms: _447  and  _448
REMARK  182  A    between atoms: _451  and  _453
REMARK  183  A    between atoms: _453  and  _454
REMARK  184  A    between atoms: _453  and  _456
REMARK  185  A    between atoms: _456  and  _457
REMARK  186  A    between atoms: _460  and  _462
REMARK  187  A    between atoms: _462  and  _463
REMARK  188  A    between atoms: _462  and  _465
REMARK  189  A    between atoms: _465  and  _466
REMARK  190  A    between atoms: _469  and  _471
REMARK  191  A    between atoms: _471  and  _472
REMARK  192  A    between atoms: _471  and  _474
REMARK  193  A    between atoms: _474  and  _475
REMARK  194  A    between atoms: _478  and  _480
REMARK  195  A    between atoms: _480  and  _481
REMARK  196  A    between atoms: _480  and  _483
REMARK  197  A    between atoms: _483  and  _484
REMARK  198  A    between atoms: _487  and  _489
REMARK  199  A    between atoms: _489  and  _490
REMARK  200  A    between atoms: _489  and  _492
REMARK  201  A    between atoms: _492  and  _493
REMARK  202  A    between atoms: _496  and  _498
REMARK  203  A    between atoms: _498  and  _499
REMARK  204  A    between atoms: _498  and  _501
REMARK  205  A    between atoms: _501  and  _502
REMARK  206  A    between atoms: _502  and  _503
REMARK  207  A    between atoms: _506  and  _508
REMARK  208  A    between atoms: _508  and  _509
REMARK  209  A    between atoms: _511  and  _513
REMARK  210  A    between atoms: _513  and  _514
REMARK  211  A    between atoms: _513  and  _516
REMARK  212  A    between atoms: _516  and  _517
REMARK  213  A    between atoms: _517  and  _518
REMARK  214  A    between atoms: _518  and  _519
REMARK  215  A    between atoms: _519  and  _520
REMARK  216  A    between atoms: _524  and  _526
REMARK  217  A    between atoms: _526  and  _527
REMARK  218  A    between atoms: _526  and  _529
REMARK  219  A    between atoms: _529  and  _530
REMARK  220  A    between atoms: _530  and  _531
REMARK  221  A    between atoms: _537  and  _538
REMARK  222  A    between atoms: _543  and  _545
REMARK  223  A    between atoms: _545  and  _546
REMARK  224  A    between atoms: _545  and  _548
REMARK  225  A    between atoms: _548  and  _549
REMARK  226  A    between atoms: _549  and  _550
REMARK                            x       y       z     vdW  Elec       q    Type
REMARK                         _______ _______ _______ _____ _____    ______ ____
ROOT
ATOM      1  O   HOH     1      -0.236 -19.275   4.750  0.00  0.00    +0.000 OA
ENDROOT
TORSDOF 0
REMARK  Name = ../refined-set-2016/3umo/3umo_pocket.pdb
REMARK  226 active torsions:
REMARK  status: ('A' for Active; 'I' for Inactive)
REMARK    1  A    between atoms: _1  and  _3
REMARK    2  A    between atoms: _3  and  _4
REMARK    3  A    between atoms: _6  and  _8
REMARK    4  A    between atoms: _8  and  _9
REMARK    5  A    between atoms: _8  and  _11
REMARK    6  A    between atoms: _11  and  _12
REMARK    7  A    between atoms: _17  and  _19
REMARK    8  A    between atoms: _19  and  _20
REMARK    9  A    between atoms: _19  and  _22
REMARK   10  A    between atoms: _22  and  _23
REMARK   11  A    between atoms: _23  and  _24
REMARK   12  A    between atoms: _24  and  _25
REMARK   13  A    between atoms: _34  and  _36
REMARK   14  A    between atoms: _36  and  _37
REMARK   15  A    between atoms: _36  and  _39
REMARK   16  A    between atoms: _39  and  _40
REMARK   17  A    between atoms: _42  and  _44
REMARK   18  A    between atoms: _44  and  _45
REMARK   19  A    between atoms: _44  and  _47
REMARK   20  A    between atoms: _47  and  _48
REMARK   21  A    between atoms: _51  and  _53
REMARK   22  A    between atoms: _53  and  _54
REMARK   23  A    between atoms: _53  and  _56
REMARK   24  A    between atoms: _56  and  _57
REMARK   25  A    between atoms: _59  and  _61
REMARK   26  A    between atoms: _61  and  _62
REMARK   27  A    between atoms: _61  and  _64
REMARK   28  A    between atoms: _64  and  _65
REMARK   29  A    between atoms: _65  and  _66
REMARK   30  A    between atoms: _66  and  _67
REMARK   31  A    between atoms: _67  and  _68
REMARK   32  A    between atoms: _73  and  _74
REMARK   33  A    between atoms: _79  and  _81
REMARK   34  A    between atoms: _81  and  _82
REMARK   35  A    between atoms: _81  and  _84
REMARK   36  A    between atoms: _84  and  _85
REMARK   37  A    between atoms: _90  and  _92
REMARK   38  A    between atoms: _92  and  _93
REMARK   39  A    between atoms: _92  and  _95
REMARK   40  A    between atoms: _95  and  _96
REMARK   41  A    between atoms: _96  and  _97
REMARK   42  A    between atoms: _102  and  _104
REMARK   43  A    between atoms: _104  and  _105
REMARK   44  A    between atoms: _104  and  _107
REMARK   45  A    between atoms: _107  and  _108
REMARK   46  A    between atoms: _108  and  _109
REMARK   47  A    between atoms: _109  and  _110
REMARK   48  A    between atoms: _110  and  _111
REMARK   49  A    between atoms: _115  and  _117
REMARK   50  A    between atoms: _117  and  _118
REMARK   51  A    between atoms: _117  and  _120
REMARK   52  A    between atoms: _120  and  _121
REMARK   53  A    between atoms: _121  and  _122
REMARK   54  A    between atoms: _125  and  _127
REMARK   55  A    between atoms: _127  and  _128
REMARK   56  A    between atoms: _127  and  _130
REMARK   57  A    between atoms: _133  and  _135
REMARK   58  A    between atoms: _135  and  _136
REMARK   59  A    between atoms: _135  and  _138
REMARK   60  A    between atoms: _141  and  _143
REMARK   61  A    between atoms: _143  and  _144
REMARK   62  A    between atoms: _143  and  _146
REMARK   63  A    between atoms: _146  and  _147
REMARK   64  A    between atoms: _149  and  _151
REMARK   65  A    between atoms: _151  and  _152
REMARK   66  A    between atoms: _151  and  _154
REMARK   67  A    between atoms: _154  and  _155
REMARK   68  A    between atoms: _158  and  _160
REMARK   69  A    between atoms: _160  and  _161
REMARK   70  A    between atoms: _164  and  _165
REMARK   71  A    between atoms: _170  and  _172
REMARK   72  A    between atoms: _172  and  _173
REMARK   73  A    between atoms: _172  and  _175
REMARK   74  A    between atoms: _175  and  _176
REMARK   75  A    between atoms: _176  and  _177
REMARK   76  A    between atoms: _182  and  _184
REMARK   77  A    between atoms: _184  and  _185
REMARK   78  A    between atoms: _187  and  _189
REMARK   79  A    between atoms: _189  and  _190
REMARK   80  A    between atoms: _193  and  _195
REMARK   81  A    between atoms: _195  and  _196
REMARK   82  A    between atoms: _195  and  _198
REMARK   83  A    between atoms: _198  and  _199
REMARK   84  A    between atoms: _202  and  _204
REMARK   85  A    between atoms: _204  and  _205
REMARK   86  A    between atoms: _204  and  _207
REMARK   87  A    between atoms: _210  and  _212
REMARK   88  A    between atoms: _212  and  _213
REMARK   89  A    between atoms: _212  and  _215
REMARK   90  A    between atoms: _219  and  _220
REMARK   91  A    between atoms: _226  and  _227
REMARK   92  A    between atoms: _233  and  _234
REMARK   93  A    between atoms: _239  and  _241
REMARK   94  A    between atoms: _241  and  _242
REMARK   95  A    between atoms: _241  and  _244
REMARK   96  A    between atoms: _247  and  _249
REMARK   97  A    between atoms: _249  and  _250
REMARK   98  A    between atoms: _249  and  _252
REMARK   99  A    between atoms: _252  and  _253
REMARK  100  A    between atoms: _253  and  _254
REMARK  101  A    between atoms: _254  and  _255
REMARK  102  A    between atoms: _255  and  _256
REMARK  103  A    between atoms: _260  and  _262
REMARK  104  A    between atoms: _262  and  _263
REMARK  105  A    between atoms: _262  and  _265
REMARK  106  A    between atoms: _265  and  _266
REMARK  107  A    between atoms: _268  and  _270
REMARK  108  A    between atoms: _270  and  _271
REMARK  109  A    between atoms: _270  and  _273
REMARK  110  A    between atoms: _273  and  _274
REMARK  111  A    between atoms: _274  and  _275
REMARK  112  A    between atoms: _280  and  _282
REMARK  113  A    between atoms: _282  and  _283
REMARK  114  A    between atoms: _282  and  _285
REMARK  115  A    between atoms: _285  and  _286
REMARK  116  A    between atoms: _288  and  _290
REMARK  117  A    between atoms: _290  and  _291
REMARK  118  A    between atoms: _290  and  _293
REMARK  119  A    between atoms: _293  and  _294
REMARK  120  A    between atoms: _297  and  _299
REMARK  121  A    between atoms: _299  and  _300
REMARK  122  A    between atoms: _299  and  _302
REMARK  123  A    between atoms: _305  and  _307
REMARK  124  A    between atoms: _307  and  _308
REMARK  125  A    between atoms: _310  and  _312
REMARK  126  A    between atoms: _312  and  _313
REMARK  127  A    between atoms: _316  and  _318
REMARK  128  A    between atoms: _318  and  _319
REMARK  129  A    between atoms: _321  and  _323
REMARK  130  A    between atoms: _323  and  _324
REMARK  131  A    between atoms: _323  and  _326
REMARK  132  A    between atoms: _326  and  _327
REMARK  133  A    between atoms: _330  and  _332
REMARK  134  A    between atoms: _332  and  _333
REMARK  135  A    between atoms: _332  and  _335
REMARK  136  A    between atoms: _335  and  _336
REMARK  137  A    between atoms: _338  and  _340
REMARK  138  A    between atoms: _340  and  _341
REMARK  139  A    between atoms: _340  and  _343
REMARK  140  A    between atoms: _343  and  _344
REMARK  141  A    between atoms: _344  and  _345
REMARK  142  A    between atoms: _347  and  _349
REMARK  143  A    between atoms: _349  and  _350
REMARK  144  A    between atoms: _349  and  _352
REMARK  145  A    between atoms: _355  and  _357
REMARK  146  A    between atoms: _357  and  _358
REMARK  147  A    between atoms: _357  and  _360
REMARK  148  A    between atoms: _360  and  _361
REMARK  149  A    between atoms: _361  and  _362
REMARK  150  A    between atoms: _364  and  _366
REMARK  151  A    between atoms: _366  and  _367
REMARK  152  A    between atoms: _366  and  _369
REMARK  153  A    between atoms: _372  and  _374
REMARK  154  A    between atoms: _374  and  _375
REMARK  155  A    between atoms: _374  and  _377
REMARK  156  A    between atoms: _377  and  _378
REMARK  157  A    between atoms: _378  and  _379
REMARK  158  A    between atoms: _379  and  _380
REMARK  159  A    between atoms: _389  and  _391
REMARK  160  A    between atoms: _391  and  _392
REMARK  161  A    between atoms: _391  and  _394
REMARK  162  A    between atoms: _394  and  _395
REMARK  163  A    between atoms: _401  and  _403
REMARK  164  A    between atoms: _403  and  _404
REMARK  165  A    between atoms: _406  and  _408
REMARK  166  A    between atoms: _408  and  _409
REMARK  167  A    between atoms: _408  and  _411
REMARK  168  A    between atoms: _414  and  _416
REMARK  169  A    between atoms: _416  and  _417
REMARK  170  A    between atoms: _420  and  _422
REMARK  171  A    between atoms: _422  and  _423
REMARK  172  A    between atoms: _426  and  _428
REMARK  173  A    between atoms: _428  and  _429
REMARK  174  A    between atoms: _431  and  _433
REMARK  175  A    between atoms: _433  and  _434
REMARK  176  A    between atoms: _433  and  _436
REMARK  177  A    between atoms: _436  and  _437
REMARK  178  A    between atoms: _439  and  _441
REMARK  179  A    between atoms: _441  and  _442
REMARK  180  A    between atoms: _445  and  _447
REMARK  181  A    between atoms: _447  and  _448
REMARK  182  A    between atoms: _451  and  _453
REMARK  183  A    between atoms: _453  and  _454
REMARK  184  A    between atoms: _453  and  _456
REMARK  185  A    between atoms: _456  and  _457
REMARK  186  A    between atoms: _460  and  _462
REMARK  187  A    between atoms: _462  and  _463
REMARK  188  A    between atoms: _462  and  _465
REMARK  189  A    between atoms: _465  and  _466
REMARK  190  A    between atoms: _469  and  _471
REMARK  191  A    between atoms: _471  and  _472
REMARK  192  A    between atoms: _471  and  _474
REMARK  193  A    between atoms: _474  and  _475
REMARK  194  A    between atoms: _478  and  _480
REMARK  195  A    between atoms: _480  and  _481
REMARK  196  A    between atoms: _480  and  _483
REMARK  197  A    between atoms: _483  and  _484
REMARK  198  A    between atoms: _487  and  _489
REMARK  199  A    between atoms: _489  and  _490
REMARK  200  A    between atoms: _489  and  _492
REMARK  201  A    between atoms: _492  and  _493
REMARK  202  A    between atoms: _496  and  _498
REMARK  203  A    between atoms: _498  and  _499
REMARK  204  A    between atoms: _498  and  _501
REMARK  205  A    between atoms: _501  and  _502
REMARK  206  A    between atoms: _502  and  _503
REMARK  207  A    between atoms: _506  and  _508
REMARK  208  A    between atoms: _508  and  _509
REMARK  209  A    between atoms: _511  and  _513
REMARK  210  A    between atoms: _513  and  _514
REMARK  211  A    between atoms: _513  and  _516
REMARK  212  A    between atoms: _516  and  _517
REMARK  213  A    between atoms: _517  and  _518
REMARK  214  A    between atoms: _518  and  _519
REMARK  215  A    between atoms: _519  and  _520
REMARK  216  A    between atoms: _524  and  _526
REMARK  217  A    between atoms: _526  and  _527
REMARK  218  A    between atoms: _526  and  _529
REMARK  219  A    between atoms: _529  and  _530
REMARK  220  A    between atoms: _530  and  _531
REMARK  221  A    between atoms: _537  and  _538
REMARK  222  A    between atoms: _543  and  _545
REMARK  223  A    between atoms: _545  and  _546
REMARK  224  A    between atoms: _545  and  _548
REMARK  225  A    between atoms: _548  and  _549
REMARK  226  A    between atoms: _549  and  _550
REMARK                            x       y       z     vdW  Elec       q    Type
REMARK                         _______ _______ _______ _____ _____    ______ ____
ROOT
ATOM      1  O   HOH     1       2.319 -18.533   5.760  0.00  0.00    +0.000 OA
ENDROOT
TORSDOF 0
REMARK  Name = ../refined-set-2016/3umo/3umo_pocket.pdb
REMARK  226 active torsions:
REMARK  status: ('A' for Active; 'I' for Inactive)
REMARK    1  A    between atoms: _1  and  _3
REMARK    2  A    between atoms: _3  and  _4
REMARK    3  A    between atoms: _6  and  _8
REMARK    4  A    between atoms: _8  and  _9
REMARK    5  A    between atoms: _8  and  _11
REMARK    6  A    between atoms: _11  and  _12
REMARK    7  A    between atoms: _17  and  _19
REMARK    8  A    between atoms: _19  and  _20
REMARK    9  A    between atoms: _19  and  _22
REMARK   10  A    between atoms: _22  and  _23
REMARK   11  A    between atoms: _23  and  _24
REMARK   12  A    between atoms: _24  and  _25
REMARK   13  A    between atoms: _34  and  _36
REMARK   14  A    between atoms: _36  and  _37
REMARK   15  A    between atoms: _36  and  _39
REMARK   16  A    between atoms: _39  and  _40
REMARK   17  A    between atoms: _42  and  _44
REMARK   18  A    between atoms: _44  and  _45
REMARK   19  A    between atoms: _44  and  _47
REMARK   20  A    between atoms: _47  and  _48
REMARK   21  A    between atoms: _51  and  _53
REMARK   22  A    between atoms: _53  and  _54
REMARK   23  A    between atoms: _53  and  _56
REMARK   24  A    between atoms: _56  and  _57
REMARK   25  A    between atoms: _59  and  _61
REMARK   26  A    between atoms: _61  and  _62
REMARK   27  A    between atoms: _61  and  _64
REMARK   28  A    between atoms: _64  and  _65
REMARK   29  A    between atoms: _65  and  _66
REMARK   30  A    between atoms: _66  and  _67
REMARK   31  A    between atoms: _67  and  _68
REMARK   32  A    between atoms: _73  and  _74
REMARK   33  A    between atoms: _79  and  _81
REMARK   34  A    between atoms: _81  and  _82
REMARK   35  A    between atoms: _81  and  _84
REMARK   36  A    between atoms: _84  and  _85
REMARK   37  A    between atoms: _90  and  _92
REMARK   38  A    between atoms: _92  and  _93
REMARK   39  A    between atoms: _92  and  _95
REMARK   40  A    between atoms: _95  and  _96
REMARK   41  A    between atoms: _96  and  _97
REMARK   42  A    between atoms: _102  and  _104
REMARK   43  A    between atoms: _104  and  _105
REMARK   44  A    between atoms: _104  and  _107
REMARK   45  A    between atoms: _107  and  _108
REMARK   46  A    between atoms: _108  and  _109
REMARK   47  A    between atoms: _109  and  _110
REMARK   48  A    between atoms: _110  and  _111
REMARK   49  A    between atoms: _115  and  _117
REMARK   50  A    between atoms: _117  and  _118
REMARK   51  A    between atoms: _117  and  _120
REMARK   52  A    between atoms: _120  and  _121
REMARK   53  A    between atoms: _121  and  _122
REMARK   54  A    between atoms: _125  and  _127
REMARK   55  A    between atoms: _127  and  _128
REMARK   56  A    between atoms: _127  and  _130
REMARK   57  A    between atoms: _133  and  _135
REMARK   58  A    between atoms: _135  and  _136
REMARK   59  A    between atoms: _135  and  _138
REMARK   60  A    between atoms: _141  and  _143
REMARK   61  A    between atoms: _143  and  _144
REMARK   62  A    between atoms: _143  and  _146
REMARK   63  A    between atoms: _146  and  _147
REMARK   64  A    between atoms: _149  and  _151
REMARK   65  A    between atoms: _151  and  _152
REMARK   66  A    between atoms: _151  and  _154
REMARK   67  A    between atoms: _154  and  _155
REMARK   68  A    between atoms: _158  and  _160
REMARK   69  A    between atoms: _160  and  _161
REMARK   70  A    between atoms: _164  and  _165
REMARK   71  A    between atoms: _170  and  _172
REMARK   72  A    between atoms: _172  and  _173
REMARK   73  A    between atoms: _172  and  _175
REMARK   74  A    between atoms: _175  and  _176
REMARK   75  A    between atoms: _176  and  _177
REMARK   76  A    between atoms: _182  and  _184
REMARK   77  A    between atoms: _184  and  _185
REMARK   78  A    between atoms: _187  and  _189
REMARK   79  A    between atoms: _189  and  _190
REMARK   80  A    between atoms: _193  and  _195
REMARK   81  A    between atoms: _195  and  _196
REMARK   82  A    between atoms: _195  and  _198
REMARK   83  A    between atoms: _198  and  _199
REMARK   84  A    between atoms: _202  and  _204
REMARK   85  A    between atoms: _204  and  _205
REMARK   86  A    between atoms: _204  and  _207
REMARK   87  A    between atoms: _210  and  _212
REMARK   88  A    between atoms: _212  and  _213
REMARK   89  A    between atoms: _212  and  _215
REMARK   90  A    between atoms: _219  and  _220
REMARK   91  A    between atoms: _226  and  _227
REMARK   92  A    between atoms: _233  and  _234
REMARK   93  A    between atoms: _239  and  _241
REMARK   94  A    between atoms: _241  and  _242
REMARK   95  A    between atoms: _241  and  _244
REMARK   96  A    between atoms: _247  and  _249
REMARK   97  A    between atoms: _249  and  _250
REMARK   98  A    between atoms: _249  and  _252
REMARK   99  A    between atoms: _252  and  _253
REMARK  100  A    between atoms: _253  and  _254
REMARK  101  A    between atoms: _254  and  _255
REMARK  102  A    between atoms: _255  and  _256
REMARK  103  A    between atoms: _260  and  _262
REMARK  104  A    between atoms: _262  and  _263
REMARK  105  A    between atoms: _262  and  _265
REMARK  106  A    between atoms: _265  and  _266
REMARK  107  A    between atoms: _268  and  _270
REMARK  108  A    between atoms: _270  and  _271
REMARK  109  A    between atoms: _270  and  _273
REMARK  110  A    between atoms: _273  and  _274
REMARK  111  A    between atoms: _274  and  _275
REMARK  112  A    between atoms: _280  and  _282
REMARK  113  A    between atoms: _282  and  _283
REMARK  114  A    between atoms: _282  and  _285
REMARK  115  A    between atoms: _285  and  _286
REMARK  116  A    between atoms: _288  and  _290
REMARK  117  A    between atoms: _290  and  _291
REMARK  118  A    between atoms: _290  and  _293
REMARK  119  A    between atoms: _293  and  _294
REMARK  120  A    between atoms: _297  and  _299
REMARK  121  A    between atoms: _299  and  _300
REMARK  122  A    between atoms: _299  and  _302
REMARK  123  A    between atoms: _305  and  _307
REMARK  124  A    between atoms: _307  and  _308
REMARK  125  A    between atoms: _310  and  _312
REMARK  126  A    between atoms: _312  and  _313
REMARK  127  A    between atoms: _316  and  _318
REMARK  128  A    between atoms: _318  and  _319
REMARK  129  A    between atoms: _321  and  _323
REMARK  130  A    between atoms: _323  and  _324
REMARK  131  A    between atoms: _323  and  _326
REMARK  132  A    between atoms: _326  and  _327
REMARK  133  A    between atoms: _330  and  _332
REMARK  134  A    between atoms: _332  and  _333
REMARK  135  A    between atoms: _332  and  _335
REMARK  136  A    between atoms: _335  and  _336
REMARK  137  A    between atoms: _338  and  _340
REMARK  138  A    between atoms: _340  and  _341
REMARK  139  A    between atoms: _340  and  _343
REMARK  140  A    between atoms: _343  and  _344
REMARK  141  A    between atoms: _344  and  _345
REMARK  142  A    between atoms: _347  and  _349
REMARK  143  A    between atoms: _349  and  _350
REMARK  144  A    between atoms: _349  and  _352
REMARK  145  A    between atoms: _355  and  _357
REMARK  146  A    between atoms: _357  and  _358
REMARK  147  A    between atoms: _357  and  _360
REMARK  148  A    between atoms: _360  and  _361
REMARK  149  A    between atoms: _361  and  _362
REMARK  150  A    between atoms: _364  and  _366
REMARK  151  A    between atoms: _366  and  _367
REMARK  152  A    between atoms: _366  and  _369
REMARK  153  A    between atoms: _372  and  _374
REMARK  154  A    between atoms: _374  and  _375
REMARK  155  A    between atoms: _374  and  _377
REMARK  156  A    between atoms: _377  and  _378
REMARK  157  A    between atoms: _378  and  _379
REMARK  158  A    between atoms: _379  and  _380
REMARK  159  A    between atoms: _389  and  _391
REMARK  160  A    between atoms: _391  and  _392
REMARK  161  A    between atoms: _391  and  _394
REMARK  162  A    between atoms: _394  and  _395
REMARK  163  A    between atoms: _401  and  _403
REMARK  164  A    between atoms: _403  and  _404
REMARK  165  A    between atoms: _406  and  _408
REMARK  166  A    between atoms: _408  and  _409
REMARK  167  A    between atoms: _408  and  _411
REMARK  168  A    between atoms: _414  and  _416
REMARK  169  A    between atoms: _416  and  _417
REMARK  170  A    between atoms: _420  and  _422
REMARK  171  A    between atoms: _422  and  _423
REMARK  172  A    between atoms: _426  and  _428
REMARK  173  A    between atoms: _428  and  _429
REMARK  174  A    between atoms: _431  and  _433
REMARK  175  A    between atoms: _433  and  _434
REMARK  176  A    between atoms: _433  and  _436
REMARK  177  A    between atoms: _436  and  _437
REMARK  178  A    between atoms: _439  and  _441
REMARK  179  A    between atoms: _441  and  _442
REMARK  180  A    between atoms: _445  and  _447
REMARK  181  A    between atoms: _447  and  _448
REMARK  182  A    between atoms: _451  and  _453
REMARK  183  A    between atoms: _453  and  _454
REMARK  184  A    between atoms: _453  and  _456
REMARK  185  A    between atoms: _456  and  _457
REMARK  186  A    between atoms: _460  and  _462
REMARK  187  A    between atoms: _462  and  _463
REMARK  188  A    between atoms: _462  and  _465
REMARK  189  A    between atoms: _465  and  _466
REMARK  190  A    between atoms: _469  and  _471
REMARK  191  A    between atoms: _471  and  _472
REMARK  192  A    between atoms: _471  and  _474
REMARK  193  A    between atoms: _474  and  _475
REMARK  194  A    between atoms: _478  and  _480
REMARK  195  A    between atoms: _480  and  _481
REMARK  196  A    between atoms: _480  and  _483
REMARK  197  A    between atoms: _483  and  _484
REMARK  198  A    between atoms: _487  and  _489
REMARK  199  A    between atoms: _489  and  _490
REMARK  200  A    between atoms: _489  and  _492
REMARK  201  A    between atoms: _492  and  _493
REMARK  202  A    between atoms: _496  and  _498
REMARK  203  A    between atoms: _498  and  _499
REMARK  204  A    between atoms: _498  and  _501
REMARK  205  A    between atoms: _501  and  _502
REMARK  206  A    between atoms: _502  and  _503
REMARK  207  A    between atoms: _506  and  _508
REMARK  208  A    between atoms: _508  and  _509
REMARK  209  A    between atoms: _511  and  _513
REMARK  210  A    between atoms: _513  and  _514
REMARK  211  A    between atoms: _513  and  _516
REMARK  212  A    between atoms: _516  and  _517
REMARK  213  A    between atoms: _517  and  _518
REMARK  214  A    between atoms: _518  and  _519
REMARK  215  A    between atoms: _519  and  _520
REMARK  216  A    between atoms: _524  and  _526
REMARK  217  A    between atoms: _526  and  _527
REMARK  218  A    between atoms: _526  and  _529
REMARK  219  A    between atoms: _529  and  _530
REMARK  220  A    between atoms: _530  and  _531
REMARK  221  A    between atoms: _537  and  _538
REMARK  222  A    between atoms: _543  and  _545
REMARK  223  A    between atoms: _545  and  _546
REMARK  224  A    between atoms: _545  and  _548
REMARK  225  A    between atoms: _548  and  _549
REMARK  226  A    between atoms: _549  and  _550
REMARK                            x       y       z     vdW  Elec       q    Type
REMARK                         _______ _______ _______ _____ _____    ______ ____
ROOT
ATOM      1  O   HOH     1      14.110 -10.290  14.958  0.00  0.00    +0.000 OA
ENDROOT
TORSDOF 0
REMARK  Name = ../refined-set-2016/3umo/3umo_pocket.pdb
REMARK  226 active torsions:
REMARK  status: ('A' for Active; 'I' for Inactive)
REMARK    1  A    between atoms: _1  and  _3
REMARK    2  A    between atoms: _3  and  _4
REMARK    3  A    between atoms: _6  and  _8
REMARK    4  A    between atoms: _8  and  _9
REMARK    5  A    between atoms: _8  and  _11
REMARK    6  A    between atoms: _11  and  _12
REMARK    7  A    between atoms: _17  and  _19
REMARK    8  A    between atoms: _19  and  _20
REMARK    9  A    between atoms: _19  and  _22
REMARK   10  A    between atoms: _22  and  _23
REMARK   11  A    between atoms: _23  and  _24
REMARK   12  A    between atoms: _24  and  _25
REMARK   13  A    between atoms: _34  and  _36
REMARK   14  A    between atoms: _36  and  _37
REMARK   15  A    between atoms: _36  and  _39
REMARK   16  A    between atoms: _39  and  _40
REMARK   17  A    between atoms: _42  and  _44
REMARK   18  A    between atoms: _44  and  _45
REMARK   19  A    between atoms: _44  and  _47
REMARK   20  A    between atoms: _47  and  _48
REMARK   21  A    between atoms: _51  and  _53
REMARK   22  A    between atoms: _53  and  _54
REMARK   23  A    between atoms: _53  and  _56
REMARK   24  A    between atoms: _56  and  _57
REMARK   25  A    between atoms: _59  and  _61
REMARK   26  A    between atoms: _61  and  _62
REMARK   27  A    between atoms: _61  and  _64
REMARK   28  A    between atoms: _64  and  _65
REMARK   29  A    between atoms: _65  and  _66
REMARK   30  A    between atoms: _66  and  _67
REMARK   31  A    between atoms: _67  and  _68
REMARK   32  A    between atoms: _73  and  _74
REMARK   33  A    between atoms: _79  and  _81
REMARK   34  A    between atoms: _81  and  _82
REMARK   35  A    between atoms: _81  and  _84
REMARK   36  A    between atoms: _84  and  _85
REMARK   37  A    between atoms: _90  and  _92
REMARK   38  A    between atoms: _92  and  _93
REMARK   39  A    between atoms: _92  and  _95
REMARK   40  A    between atoms: _95  and  _96
REMARK   41  A    between atoms: _96  and  _97
REMARK   42  A    between atoms: _102  and  _104
REMARK   43  A    between atoms: _104  and  _105
REMARK   44  A    between atoms: _104  and  _107
REMARK   45  A    between atoms: _107  and  _108
REMARK   46  A    between atoms: _108  and  _109
REMARK   47  A    between atoms: _109  and  _110
REMARK   48  A    between atoms: _110  and  _111
REMARK   49  A    between atoms: _115  and  _117
REMARK   50  A    between atoms: _117  and  _118
REMARK   51  A    between atoms: _117  and  _120
REMARK   52  A    between atoms: _120  and  _121
REMARK   53  A    between atoms: _121  and  _122
REMARK   54  A    between atoms: _125  and  _127
REMARK   55  A    between atoms: _127  and  _128
REMARK   56  A    between atoms: _127  and  _130
REMARK   57  A    between atoms: _133  and  _135
REMARK   58  A    between atoms: _135  and  _136
REMARK   59  A    between atoms: _135  and  _138
REMARK   60  A    between atoms: _141  and  _143
REMARK   61  A    between atoms: _143  and  _144
REMARK   62  A    between atoms: _143  and  _146
REMARK   63  A    between atoms: _146  and  _147
REMARK   64  A    between atoms: _149  and  _151
REMARK   65  A    between atoms: _151  and  _152
REMARK   66  A    between atoms: _151  and  _154
REMARK   67  A    between atoms: _154  and  _155
REMARK   68  A    between atoms: _158  and  _160
REMARK   69  A    between atoms: _160  and  _161
REMARK   70  A    between atoms: _164  and  _165
REMARK   71  A    between atoms: _170  and  _172
REMARK   72  A    between atoms: _172  and  _173
REMARK   73  A    between atoms: _172  and  _175
REMARK   74  A    between atoms: _175  and  _176
REMARK   75  A    between atoms: _176  and  _177
REMARK   76  A    between atoms: _182  and  _184
REMARK   77  A    between atoms: _184  and  _185
REMARK   78  A    between atoms: _187  and  _189
REMARK   79  A    between atoms: _189  and  _190
REMARK   80  A    between atoms: _193  and  _195
REMARK   81  A    between atoms: _195  and  _196
REMARK   82  A    between atoms: _195  and  _198
REMARK   83  A    between atoms: _198  and  _199
REMARK   84  A    between atoms: _202  and  _204
REMARK   85  A    between atoms: _204  and  _205
REMARK   86  A    between atoms: _204  and  _207
REMARK   87  A    between atoms: _210  and  _212
REMARK   88  A    between atoms: _212  and  _213
REMARK   89  A    between atoms: _212  and  _215
REMARK   90  A    between atoms: _219  and  _220
REMARK   91  A    between atoms: _226  and  _227
REMARK   92  A    between atoms: _233  and  _234
REMARK   93  A    between atoms: _239  and  _241
REMARK   94  A    between atoms: _241  and  _242
REMARK   95  A    between atoms: _241  and  _244
REMARK   96  A    between atoms: _247  and  _249
REMARK   97  A    between atoms: _249  and  _250
REMARK   98  A    between atoms: _249  and  _252
REMARK   99  A    between atoms: _252  and  _253
REMARK  100  A    between atoms: _253  and  _254
REMARK  101  A    between atoms: _254  and  _255
REMARK  102  A    between atoms: _255  and  _256
REMARK  103  A    between atoms: _260  and  _262
REMARK  104  A    between atoms: _262  and  _263
REMARK  105  A    between atoms: _262  and  _265
REMARK  106  A    between atoms: _265  and  _266
REMARK  107  A    between atoms: _268  and  _270
REMARK  108  A    between atoms: _270  and  _271
REMARK  109  A    between atoms: _270  and  _273
REMARK  110  A    between atoms: _273  and  _274
REMARK  111  A    between atoms: _274  and  _275
REMARK  112  A    between atoms: _280  and  _282
REMARK  113  A    between atoms: _282  and  _283
REMARK  114  A    between atoms: _282  and  _285
REMARK  115  A    between atoms: _285  and  _286
REMARK  116  A    between atoms: _288  and  _290
REMARK  117  A    between atoms: _290  and  _291
REMARK  118  A    between atoms: _290  and  _293
REMARK  119  A    between atoms: _293  and  _294
REMARK  120  A    between atoms: _297  and  _299
REMARK  121  A    between atoms: _299  and  _300
REMARK  122  A    between atoms: _299  and  _302
REMARK  123  A    between atoms: _305  and  _307
REMARK  124  A    between atoms: _307  and  _308
REMARK  125  A    between atoms: _310  and  _312
REMARK  126  A    between atoms: _312  and  _313
REMARK  127  A    between atoms: _316  and  _318
REMARK  128  A    between atoms: _318  and  _319
REMARK  129  A    between atoms: _321  and  _323
REMARK  130  A    between atoms: _323  and  _324
REMARK  131  A    between atoms: _323  and  _326
REMARK  132  A    between atoms: _326  and  _327
REMARK  133  A    between atoms: _330  and  _332
REMARK  134  A    between atoms: _332  and  _333
REMARK  135  A    between atoms: _332  and  _335
REMARK  136  A    between atoms: _335  and  _336
REMARK  137  A    between atoms: _338  and  _340
REMARK  138  A    between atoms: _340  and  _341
REMARK  139  A    between atoms: _340  and  _343
REMARK  140  A    between atoms: _343  and  _344
REMARK  141  A    between atoms: _344  and  _345
REMARK  142  A    between atoms: _347  and  _349
REMARK  143  A    between atoms: _349  and  _350
REMARK  144  A    between atoms: _349  and  _352
REMARK  145  A    between atoms: _355  and  _357
REMARK  146  A    between atoms: _357  and  _358
REMARK  147  A    between atoms: _357  and  _360
REMARK  148  A    between atoms: _360  and  _361
REMARK  149  A    between atoms: _361  and  _362
REMARK  150  A    between atoms: _364  and  _366
REMARK  151  A    between atoms: _366  and  _367
REMARK  152  A    between atoms: _366  and  _369
REMARK  153  A    between atoms: _372  and  _374
REMARK  154  A    between atoms: _374  and  _375
REMARK  155  A    between atoms: _374  and  _377
REMARK  156  A    between atoms: _377  and  _378
REMARK  157  A    between atoms: _378  and  _379
REMARK  158  A    between atoms: _379  and  _380
REMARK  159  A    between atoms: _389  and  _391
REMARK  160  A    between atoms: _391  and  _392
REMARK  161  A    between atoms: _391  and  _394
REMARK  162  A    between atoms: _394  and  _395
REMARK  163  A    between atoms: _401  and  _403
REMARK  164  A    between atoms: _403  and  _404
REMARK  165  A    between atoms: _406  and  _408
REMARK  166  A    between atoms: _408  and  _409
REMARK  167  A    between atoms: _408  and  _411
REMARK  168  A    between atoms: _414  and  _416
REMARK  169  A    between atoms: _416  and  _417
REMARK  170  A    between atoms: _420  and  _422
REMARK  171  A    between atoms: _422  and  _423
REMARK  172  A    between atoms: _426  and  _428
REMARK  173  A    between atoms: _428  and  _429
REMARK  174  A    between atoms: _431  and  _433
REMARK  175  A    between atoms: _433  and  _434
REMARK  176  A    between atoms: _433  and  _436
REMARK  177  A    between atoms: _436  and  _437
REMARK  178  A    between atoms: _439  and  _441
REMARK  179  A    between atoms: _441  and  _442
REMARK  180  A    between atoms: _445  and  _447
REMARK  181  A    between atoms: _447  and  _448
REMARK  182  A    between atoms: _451  and  _453
REMARK  183  A    between atoms: _453  and  _454
REMARK  184  A    between atoms: _453  and  _456
REMARK  185  A    between atoms: _456  and  _457
REMARK  186  A    between atoms: _460  and  _462
REMARK  187  A    between atoms: _462  and  _463
REMARK  188  A    between atoms: _462  and  _465
REMARK  189  A    between atoms: _465  and  _466
REMARK  190  A    between atoms: _469  and  _471
REMARK  191  A    between atoms: _471  and  _472
REMARK  192  A    between atoms: _471  and  _474
REMARK  193  A    between atoms: _474  and  _475
REMARK  194  A    between atoms: _478  and  _480
REMARK  195  A    between atoms: _480  and  _481
REMARK  196  A    between atoms: _480  and  _483
REMARK  197  A    between atoms: _483  and  _484
REMARK  198  A    between atoms: _487  and  _489
REMARK  199  A    between atoms: _489  and  _490
REMARK  200  A    between atoms: _489  and  _492
REMARK  201  A    between atoms: _492  and  _493
REMARK  202  A    between atoms: _496  and  _498
REMARK  203  A    between atoms: _498  and  _499
REMARK  204  A    between atoms: _498  and  _501
REMARK  205  A    between atoms: _501  and  _502
REMARK  206  A    between atoms: _502  and  _503
REMARK  207  A    between atoms: _506  and  _508
REMARK  208  A    between atoms: _508  and  _509
REMARK  209  A    between atoms: _511  and  _513
REMARK  210  A    between atoms: _513  and  _514
REMARK  211  A    between atoms: _513  and  _516
REMARK  212  A    between atoms: _516  and  _517
REMARK  213  A    between atoms: _517  and  _518
REMARK  214  A    between atoms: _518  and  _519
REMARK  215  A    between atoms: _519  and  _520
REMARK  216  A    between atoms: _524  and  _526
REMARK  217  A    between atoms: _526  and  _527
REMARK  218  A    between atoms: _526  and  _529
REMARK  219  A    between atoms: _529  and  _530
REMARK  220  A    between atoms: _530  and  _531
REMARK  221  A    between atoms: _537  and  _538
REMARK  222  A    between atoms: _543  and  _545
REMARK  223  A    between atoms: _545  and  _546
REMARK  224  A    between atoms: _545  and  _548
REMARK  225  A    between atoms: _548  and  _549
REMARK  226  A    between atoms: _549  and  _550
REMARK                            x       y       z     vdW  Elec       q    Type
REMARK                         _______ _______ _______ _____ _____    ______ ____
ROOT
ATOM      1  O   HOH     1      13.512 -15.798  10.927  0.00  0.00    +0.000 OA
ENDROOT
TORSDOF 0
REMARK  Name = ../refined-set-2016/3umo/3umo_pocket.pdb
REMARK  226 active torsions:
REMARK  status: ('A' for Active; 'I' for Inactive)
REMARK    1  A    between atoms: _1  and  _3
REMARK    2  A    between atoms: _3  and  _4
REMARK    3  A    between atoms: _6  and  _8
REMARK    4  A    between atoms: _8  and  _9
REMARK    5  A    between atoms: _8  and  _11
REMARK    6  A    between atoms: _11  and  _12
REMARK    7  A    between atoms: _17  and  _19
REMARK    8  A    between atoms: _19  and  _20
REMARK    9  A    between atoms: _19  and  _22
REMARK   10  A    between atoms: _22  and  _23
REMARK   11  A    between atoms: _23  and  _24
REMARK   12  A    between atoms: _24  and  _25
REMARK   13  A    between atoms: _34  and  _36
REMARK   14  A    between atoms: _36  and  _37
REMARK   15  A    between atoms: _36  and  _39
REMARK   16  A    between atoms: _39  and  _40
REMARK   17  A    between atoms: _42  and  _44
REMARK   18  A    between atoms: _44  and  _45
REMARK   19  A    between atoms: _44  and  _47
REMARK   20  A    between atoms: _47  and  _48
REMARK   21  A    between atoms: _51  and  _53
REMARK   22  A    between atoms: _53  and  _54
REMARK   23  A    between atoms: _53  and  _56
REMARK   24  A    between atoms: _56  and  _57
REMARK   25  A    between atoms: _59  and  _61
REMARK   26  A    between atoms: _61  and  _62
REMARK   27  A    between atoms: _61  and  _64
REMARK   28  A    between atoms: _64  and  _65
REMARK   29  A    between atoms: _65  and  _66
REMARK   30  A    between atoms: _66  and  _67
REMARK   31  A    between atoms: _67  and  _68
REMARK   32  A    between atoms: _73  and  _74
REMARK   33  A    between atoms: _79  and  _81
REMARK   34  A    between atoms: _81  and  _82
REMARK   35  A    between atoms: _81  and  _84
REMARK   36  A    between atoms: _84  and  _85
REMARK   37  A    between atoms: _90  and  _92
REMARK   38  A    between atoms: _92  and  _93
REMARK   39  A    between atoms: _92  and  _95
REMARK   40  A    between atoms: _95  and  _96
REMARK   41  A    between atoms: _96  and  _97
REMARK   42  A    between atoms: _102  and  _104
REMARK   43  A    between atoms: _104  and  _105
REMARK   44  A    between atoms: _104  and  _107
REMARK   45  A    between atoms: _107  and  _108
REMARK   46  A    between atoms: _108  and  _109
REMARK   47  A    between atoms: _109  and  _110
REMARK   48  A    between atoms: _110  and  _111
REMARK   49  A    between atoms: _115  and  _117
REMARK   50  A    between atoms: _117  and  _118
REMARK   51  A    between atoms: _117  and  _120
REMARK   52  A    between atoms: _120  and  _121
REMARK   53  A    between atoms: _121  and  _122
REMARK   54  A    between atoms: _125  and  _127
REMARK   55  A    between atoms: _127  and  _128
REMARK   56  A    between atoms: _127  and  _130
REMARK   57  A    between atoms: _133  and  _135
REMARK   58  A    between atoms: _135  and  _136
REMARK   59  A    between atoms: _135  and  _138
REMARK   60  A    between atoms: _141  and  _143
REMARK   61  A    between atoms: _143  and  _144
REMARK   62  A    between atoms: _143  and  _146
REMARK   63  A    between atoms: _146  and  _147
REMARK   64  A    between atoms: _149  and  _151
REMARK   65  A    between atoms: _151  and  _152
REMARK   66  A    between atoms: _151  and  _154
REMARK   67  A    between atoms: _154  and  _155
REMARK   68  A    between atoms: _158  and  _160
REMARK   69  A    between atoms: _160  and  _161
REMARK   70  A    between atoms: _164  and  _165
REMARK   71  A    between atoms: _170  and  _172
REMARK   72  A    between atoms: _172  and  _173
REMARK   73  A    between atoms: _172  and  _175
REMARK   74  A    between atoms: _175  and  _176
REMARK   75  A    between atoms: _176  and  _177
REMARK   76  A    between atoms: _182  and  _184
REMARK   77  A    between atoms: _184  and  _185
REMARK   78  A    between atoms: _187  and  _189
REMARK   79  A    between atoms: _189  and  _190
REMARK   80  A    between atoms: _193  and  _195
REMARK   81  A    between atoms: _195  and  _196
REMARK   82  A    between atoms: _195  and  _198
REMARK   83  A    between atoms: _198  and  _199
REMARK   84  A    between atoms: _202  and  _204
REMARK   85  A    between atoms: _204  and  _205
REMARK   86  A    between atoms: _204  and  _207
REMARK   87  A    between atoms: _210  and  _212
REMARK   88  A    between atoms: _212  and  _213
REMARK   89  A    between atoms: _212  and  _215
REMARK   90  A    between atoms: _219  and  _220
REMARK   91  A    between atoms: _226  and  _227
REMARK   92  A    between atoms: _233  and  _234
REMARK   93  A    between atoms: _239  and  _241
REMARK   94  A    between atoms: _241  and  _242
REMARK   95  A    between atoms: _241  and  _244
REMARK   96  A    between atoms: _247  and  _249
REMARK   97  A    between atoms: _249  and  _250
REMARK   98  A    between atoms: _249  and  _252
REMARK   99  A    between atoms: _252  and  _253
REMARK  100  A    between atoms: _253  and  _254
REMARK  101  A    between atoms: _254  and  _255
REMARK  102  A    between atoms: _255  and  _256
REMARK  103  A    between atoms: _260  and  _262
REMARK  104  A    between atoms: _262  and  _263
REMARK  105  A    between atoms: _262  and  _265
REMARK  106  A    between atoms: _265  and  _266
REMARK  107  A    between atoms: _268  and  _270
REMARK  108  A    between atoms: _270  and  _271
REMARK  109  A    between atoms: _270  and  _273
REMARK  110  A    between atoms: _273  and  _274
REMARK  111  A    between atoms: _274  and  _275
REMARK  112  A    between atoms: _280  and  _282
REMARK  113  A    between atoms: _282  and  _283
REMARK  114  A    between atoms: _282  and  _285
REMARK  115  A    between atoms: _285  and  _286
REMARK  116  A    between atoms: _288  and  _290
REMARK  117  A    between atoms: _290  and  _291
REMARK  118  A    between atoms: _290  and  _293
REMARK  119  A    between atoms: _293  and  _294
REMARK  120  A    between atoms: _297  and  _299
REMARK  121  A    between atoms: _299  and  _300
REMARK  122  A    between atoms: _299  and  _302
REMARK  123  A    between atoms: _305  and  _307
REMARK  124  A    between atoms: _307  and  _308
REMARK  125  A    between atoms: _310  and  _312
REMARK  126  A    between atoms: _312  and  _313
REMARK  127  A    between atoms: _316  and  _318
REMARK  128  A    between atoms: _318  and  _319
REMARK  129  A    between atoms: _321  and  _323
REMARK  130  A    between atoms: _323  and  _324
REMARK  131  A    between atoms: _323  and  _326
REMARK  132  A    between atoms: _326  and  _327
REMARK  133  A    between atoms: _330  and  _332
REMARK  134  A    between atoms: _332  and  _333
REMARK  135  A    between atoms: _332  and  _335
REMARK  136  A    between atoms: _335  and  _336
REMARK  137  A    between atoms: _338  and  _340
REMARK  138  A    between atoms: _340  and  _341
REMARK  139  A    between atoms: _340  and  _343
REMARK  140  A    between atoms: _343  and  _344
REMARK  141  A    between atoms: _344  and  _345
REMARK  142  A    between atoms: _347  and  _349
REMARK  143  A    between atoms: _349  and  _350
REMARK  144  A    between atoms: _349  and  _352
REMARK  145  A    between atoms: _355  and  _357
REMARK  146  A    between atoms: _357  and  _358
REMARK  147  A    between atoms: _357  and  _360
REMARK  148  A    between atoms: _360  and  _361
REMARK  149  A    between atoms: _361  and  _362
REMARK  150  A    between atoms: _364  and  _366
REMARK  151  A    between atoms: _366  and  _367
REMARK  152  A    between atoms: _366  and  _369
REMARK  153  A    between atoms: _372  and  _374
REMARK  154  A    between atoms: _374  and  _375
REMARK  155  A    between atoms: _374  and  _377
REMARK  156  A    between atoms: _377  and  _378
REMARK  157  A    between atoms: _378  and  _379
REMARK  158  A    between atoms: _379  and  _380
REMARK  159  A    between atoms: _389  and  _391
REMARK  160  A    between atoms: _391  and  _392
REMARK  161  A    between atoms: _391  and  _394
REMARK  162  A    between atoms: _394  and  _395
REMARK  163  A    between atoms: _401  and  _403
REMARK  164  A    between atoms: _403  and  _404
REMARK  165  A    between atoms: _406  and  _408
REMARK  166  A    between atoms: _408  and  _409
REMARK  167  A    between atoms: _408  and  _411
REMARK  168  A    between atoms: _414  and  _416
REMARK  169  A    between atoms: _416  and  _417
REMARK  170  A    between atoms: _420  and  _422
REMARK  171  A    between atoms: _422  and  _423
REMARK  172  A    between atoms: _426  and  _428
REMARK  173  A    between atoms: _428  and  _429
REMARK  174  A    between atoms: _431  and  _433
REMARK  175  A    between atoms: _433  and  _434
REMARK  176  A    between atoms: _433  and  _436
REMARK  177  A    between atoms: _436  and  _437
REMARK  178  A    between atoms: _439  and  _441
REMARK  179  A    between atoms: _441  and  _442
REMARK  180  A    between atoms: _445  and  _447
REMARK  181  A    between atoms: _447  and  _448
REMARK  182  A    between atoms: _451  and  _453
REMARK  183  A    between atoms: _453  and  _454
REMARK  184  A    between atoms: _453  and  _456
REMARK  185  A    between atoms: _456  and  _457
REMARK  186  A    between atoms: _460  and  _462
REMARK  187  A    between atoms: _462  and  _463
REMARK  188  A    between atoms: _462  and  _465
REMARK  189  A    between atoms: _465  and  _466
REMARK  190  A    between atoms: _469  and  _471
REMARK  191  A    between atoms: _471  and  _472
REMARK  192  A    between atoms: _471  and  _474
REMARK  193  A    between atoms: _474  and  _475
REMARK  194  A    between atoms: _478  and  _480
REMARK  195  A    between atoms: _480  and  _481
REMARK  196  A    between atoms: _480  and  _483
REMARK  197  A    between atoms: _483  and  _484
REMARK  198  A    between atoms: _487  and  _489
REMARK  199  A    between atoms: _489  and  _490
REMARK  200  A    between atoms: _489  and  _492
REMARK  201  A    between atoms: _492  and  _493
REMARK  202  A    between atoms: _496  and  _498
REMARK  203  A    between atoms: _498  and  _499
REMARK  204  A    between atoms: _498  and  _501
REMARK  205  A    between atoms: _501  and  _502
REMARK  206  A    between atoms: _502  and  _503
REMARK  207  A    between atoms: _506  and  _508
REMARK  208  A    between atoms: _508  and  _509
REMARK  209  A    between atoms: _511  and  _513
REMARK  210  A    between atoms: _513  and  _514
REMARK  211  A    between atoms: _513  and  _516
REMARK  212  A    between atoms: _516  and  _517
REMARK  213  A    between atoms: _517  and  _518
REMARK  214  A    between atoms: _518  and  _519
REMARK  215  A    between atoms: _519  and  _520
REMARK  216  A    between atoms: _524  and  _526
REMARK  217  A    between atoms: _526  and  _527
REMARK  218  A    between atoms: _526  and  _529
REMARK  219  A    between atoms: _529  and  _530
REMARK  220  A    between atoms: _530  and  _531
REMARK  221  A    between atoms: _537  and  _538
REMARK  222  A    between atoms: _543  and  _545
REMARK  223  A    between atoms: _545  and  _546
REMARK  224  A    between atoms: _545  and  _548
REMARK  225  A    between atoms: _548  and  _549
REMARK  226  A    between atoms: _549  and  _550
REMARK                            x       y       z     vdW  Elec       q    Type
REMARK                         _______ _______ _______ _____ _____    ______ ____
ROOT
ATOM      1  O   HOH     1      13.971  -9.419  12.303  0.00  0.00    +0.000 OA
ENDROOT
TORSDOF 0
REMARK  Name = ../refined-set-2016/3umo/3umo_pocket.pdb
REMARK  226 active torsions:
REMARK  status: ('A' for Active; 'I' for Inactive)
REMARK    1  A    between atoms: _1  and  _3
REMARK    2  A    between atoms: _3  and  _4
REMARK    3  A    between atoms: _6  and  _8
REMARK    4  A    between atoms: _8  and  _9
REMARK    5  A    between atoms: _8  and  _11
REMARK    6  A    between atoms: _11  and  _12
REMARK    7  A    between atoms: _17  and  _19
REMARK    8  A    between atoms: _19  and  _20
REMARK    9  A    between atoms: _19  and  _22
REMARK   10  A    between atoms: _22  and  _23
REMARK   11  A    between atoms: _23  and  _24
REMARK   12  A    between atoms: _24  and  _25
REMARK   13  A    between atoms: _34  and  _36
REMARK   14  A    between atoms: _36  and  _37
REMARK   15  A    between atoms: _36  and  _39
REMARK   16  A    between atoms: _39  and  _40
REMARK   17  A    between atoms: _42  and  _44
REMARK   18  A    between atoms: _44  and  _45
REMARK   19  A    between atoms: _44  and  _47
REMARK   20  A    between atoms: _47  and  _48
REMARK   21  A    between atoms: _51  and  _53
REMARK   22  A    between atoms: _53  and  _54
REMARK   23  A    between atoms: _53  and  _56
REMARK   24  A    between atoms: _56  and  _57
REMARK   25  A    between atoms: _59  and  _61
REMARK   26  A    between atoms: _61  and  _62
REMARK   27  A    between atoms: _61  and  _64
REMARK   28  A    between atoms: _64  and  _65
REMARK   29  A    between atoms: _65  and  _66
REMARK   30  A    between atoms: _66  and  _67
REMARK   31  A    between atoms: _67  and  _68
REMARK   32  A    between atoms: _73  and  _74
REMARK   33  A    between atoms: _79  and  _81
REMARK   34  A    between atoms: _81  and  _82
REMARK   35  A    between atoms: _81  and  _84
REMARK   36  A    between atoms: _84  and  _85
REMARK   37  A    between atoms: _90  and  _92
REMARK   38  A    between atoms: _92  and  _93
REMARK   39  A    between atoms: _92  and  _95
REMARK   40  A    between atoms: _95  and  _96
REMARK   41  A    between atoms: _96  and  _97
REMARK   42  A    between atoms: _102  and  _104
REMARK   43  A    between atoms: _104  and  _105
REMARK   44  A    between atoms: _104  and  _107
REMARK   45  A    between atoms: _107  and  _108
REMARK   46  A    between atoms: _108  and  _109
REMARK   47  A    between atoms: _109  and  _110
REMARK   48  A    between atoms: _110  and  _111
REMARK   49  A    between atoms: _115  and  _117
REMARK   50  A    between atoms: _117  and  _118
REMARK   51  A    between atoms: _117  and  _120
REMARK   52  A    between atoms: _120  and  _121
REMARK   53  A    between atoms: _121  and  _122
REMARK   54  A    between atoms: _125  and  _127
REMARK   55  A    between atoms: _127  and  _128
REMARK   56  A    between atoms: _127  and  _130
REMARK   57  A    between atoms: _133  and  _135
REMARK   58  A    between atoms: _135  and  _136
REMARK   59  A    between atoms: _135  and  _138
REMARK   60  A    between atoms: _141  and  _143
REMARK   61  A    between atoms: _143  and  _144
REMARK   62  A    between atoms: _143  and  _146
REMARK   63  A    between atoms: _146  and  _147
REMARK   64  A    between atoms: _149  and  _151
REMARK   65  A    between atoms: _151  and  _152
REMARK   66  A    between atoms: _151  and  _154
REMARK   67  A    between atoms: _154  and  _155
REMARK   68  A    between atoms: _158  and  _160
REMARK   69  A    between atoms: _160  and  _161
REMARK   70  A    between atoms: _164  and  _165
REMARK   71  A    between atoms: _170  and  _172
REMARK   72  A    between atoms: _172  and  _173
REMARK   73  A    between atoms: _172  and  _175
REMARK   74  A    between atoms: _175  and  _176
REMARK   75  A    between atoms: _176  and  _177
REMARK   76  A    between atoms: _182  and  _184
REMARK   77  A    between atoms: _184  and  _185
REMARK   78  A    between atoms: _187  and  _189
REMARK   79  A    between atoms: _189  and  _190
REMARK   80  A    between atoms: _193  and  _195
REMARK   81  A    between atoms: _195  and  _196
REMARK   82  A    between atoms: _195  and  _198
REMARK   83  A    between atoms: _198  and  _199
REMARK   84  A    between atoms: _202  and  _204
REMARK   85  A    between atoms: _204  and  _205
REMARK   86  A    between atoms: _204  and  _207
REMARK   87  A    between atoms: _210  and  _212
REMARK   88  A    between atoms: _212  and  _213
REMARK   89  A    between atoms: _212  and  _215
REMARK   90  A    between atoms: _219  and  _220
REMARK   91  A    between atoms: _226  and  _227
REMARK   92  A    between atoms: _233  and  _234
REMARK   93  A    between atoms: _239  and  _241
REMARK   94  A    between atoms: _241  and  _242
REMARK   95  A    between atoms: _241  and  _244
REMARK   96  A    between atoms: _247  and  _249
REMARK   97  A    between atoms: _249  and  _250
REMARK   98  A    between atoms: _249  and  _252
REMARK   99  A    between atoms: _252  and  _253
REMARK  100  A    between atoms: _253  and  _254
REMARK  101  A    between atoms: _254  and  _255
REMARK  102  A    between atoms: _255  and  _256
REMARK  103  A    between atoms: _260  and  _262
REMARK  104  A    between atoms: _262  and  _263
REMARK  105  A    between atoms: _262  and  _265
REMARK  106  A    between atoms: _265  and  _266
REMARK  107  A    between atoms: _268  and  _270
REMARK  108  A    between atoms: _270  and  _271
REMARK  109  A    between atoms: _270  and  _273
REMARK  110  A    between atoms: _273  and  _274
REMARK  111  A    between atoms: _274  and  _275
REMARK  112  A    between atoms: _280  and  _282
REMARK  113  A    between atoms: _282  and  _283
REMARK  114  A    between atoms: _282  and  _285
REMARK  115  A    between atoms: _285  and  _286
REMARK  116  A    between atoms: _288  and  _290
REMARK  117  A    between atoms: _290  and  _291
REMARK  118  A    between atoms: _290  and  _293
REMARK  119  A    between atoms: _293  and  _294
REMARK  120  A    between atoms: _297  and  _299
REMARK  121  A    between atoms: _299  and  _300
REMARK  122  A    between atoms: _299  and  _302
REMARK  123  A    between atoms: _305  and  _307
REMARK  124  A    between atoms: _307  and  _308
REMARK  125  A    between atoms: _310  and  _312
REMARK  126  A    between atoms: _312  and  _313
REMARK  127  A    between atoms: _316  and  _318
REMARK  128  A    between atoms: _318  and  _319
REMARK  129  A    between atoms: _321  and  _323
REMARK  130  A    between atoms: _323  and  _324
REMARK  131  A    between atoms: _323  and  _326
REMARK  132  A    between atoms: _326  and  _327
REMARK  133  A    between atoms: _330  and  _332
REMARK  134  A    between atoms: _332  and  _333
REMARK  135  A    between atoms: _332  and  _335
REMARK  136  A    between atoms: _335  and  _336
REMARK  137  A    between atoms: _338  and  _340
REMARK  138  A    between atoms: _340  and  _341
REMARK  139  A    between atoms: _340  and  _343
REMARK  140  A    between atoms: _343  and  _344
REMARK  141  A    between atoms: _344  and  _345
REMARK  142  A    between atoms: _347  and  _349
REMARK  143  A    between atoms: _349  and  _350
REMARK  144  A    between atoms: _349  and  _352
REMARK  145  A    between atoms: _355  and  _357
REMARK  146  A    between atoms: _357  and  _358
REMARK  147  A    between atoms: _357  and  _360
REMARK  148  A    between atoms: _360  and  _361
REMARK  149  A    between atoms: _361  and  _362
REMARK  150  A    between atoms: _364  and  _366
REMARK  151  A    between atoms: _366  and  _367
REMARK  152  A    between atoms: _366  and  _369
REMARK  153  A    between atoms: _372  and  _374
REMARK  154  A    between atoms: _374  and  _375
REMARK  155  A    between atoms: _374  and  _377
REMARK  156  A    between atoms: _377  and  _378
REMARK  157  A    between atoms: _378  and  _379
REMARK  158  A    between atoms: _379  and  _380
REMARK  159  A    between atoms: _389  and  _391
REMARK  160  A    between atoms: _391  and  _392
REMARK  161  A    between atoms: _391  and  _394
REMARK  162  A    between atoms: _394  and  _395
REMARK  163  A    between atoms: _401  and  _403
REMARK  164  A    between atoms: _403  and  _404
REMARK  165  A    between atoms: _406  and  _408
REMARK  166  A    between atoms: _408  and  _409
REMARK  167  A    between atoms: _408  and  _411
REMARK  168  A    between atoms: _414  and  _416
REMARK  169  A    between atoms: _416  and  _417
REMARK  170  A    between atoms: _420  and  _422
REMARK  171  A    between atoms: _422  and  _423
REMARK  172  A    between atoms: _426  and  _428
REMARK  173  A    between atoms: _428  and  _429
REMARK  174  A    between atoms: _431  and  _433
REMARK  175  A    between atoms: _433  and  _434
REMARK  176  A    between atoms: _433  and  _436
REMARK  177  A    between atoms: _436  and  _437
REMARK  178  A    between atoms: _439  and  _441
REMARK  179  A    between atoms: _441  and  _442
REMARK  180  A    between atoms: _445  and  _447
REMARK  181  A    between atoms: _447  and  _448
REMARK  182  A    between atoms: _451  and  _453
REMARK  183  A    between atoms: _453  and  _454
REMARK  184  A    between atoms: _453  and  _456
REMARK  185  A    between atoms: _456  and  _457
REMARK  186  A    between atoms: _460  and  _462
REMARK  187  A    between atoms: _462  and  _463
REMARK  188  A    between atoms: _462  and  _465
REMARK  189  A    between atoms: _465  and  _466
REMARK  190  A    between atoms: _469  and  _471
REMARK  191  A    between atoms: _471  and  _472
REMARK  192  A    between atoms: _471  and  _474
REMARK  193  A    between atoms: _474  and  _475
REMARK  194  A    between atoms: _478  and  _480
REMARK  195  A    between atoms: _480  and  _481
REMARK  196  A    between atoms: _480  and  _483
REMARK  197  A    between atoms: _483  and  _484
REMARK  198  A    between atoms: _487  and  _489
REMARK  199  A    between atoms: _489  and  _490
REMARK  200  A    between atoms: _489  and  _492
REMARK  201  A    between atoms: _492  and  _493
REMARK  202  A    between atoms: _496  and  _498
REMARK  203  A    between atoms: _498  and  _499
REMARK  204  A    between atoms: _498  and  _501
REMARK  205  A    between atoms: _501  and  _502
REMARK  206  A    between atoms: _502  and  _503
REMARK  207  A    between atoms: _506  and  _508
REMARK  208  A    between atoms: _508  and  _509
REMARK  209  A    between atoms: _511  and  _513
REMARK  210  A    between atoms: _513  and  _514
REMARK  211  A    between atoms: _513  and  _516
REMARK  212  A    between atoms: _516  and  _517
REMARK  213  A    between atoms: _517  and  _518
REMARK  214  A    between atoms: _518  and  _519
REMARK  215  A    between atoms: _519  and  _520
REMARK  216  A    between atoms: _524  and  _526
REMARK  217  A    between atoms: _526  and  _527
REMARK  218  A    between atoms: _526  and  _529
REMARK  219  A    between atoms: _529  and  _530
REMARK  220  A    between atoms: _530  and  _531
REMARK  221  A    between atoms: _537  and  _538
REMARK  222  A    between atoms: _543  and  _545
REMARK  223  A    between atoms: _545  and  _546
REMARK  224  A    between atoms: _545  and  _548
REMARK  225  A    between atoms: _548  and  _549
REMARK  226  A    between atoms: _549  and  _550
REMARK                            x       y       z     vdW  Elec       q    Type
REMARK                         _______ _______ _______ _____ _____    ______ ____
ROOT
ATOM      1  O   HOH     1      16.304 -14.186  14.677  0.00  0.00    +0.000 OA
ENDROOT
TORSDOF 0
REMARK  Name = ../refined-set-2016/3umo/3umo_pocket.pdb
REMARK  226 active torsions:
REMARK  status: ('A' for Active; 'I' for Inactive)
REMARK    1  A    between atoms: _1  and  _3
REMARK    2  A    between atoms: _3  and  _4
REMARK    3  A    between atoms: _6  and  _8
REMARK    4  A    between atoms: _8  and  _9
REMARK    5  A    between atoms: _8  and  _11
REMARK    6  A    between atoms: _11  and  _12
REMARK    7  A    between atoms: _17  and  _19
REMARK    8  A    between atoms: _19  and  _20
REMARK    9  A    between atoms: _19  and  _22
REMARK   10  A    between atoms: _22  and  _23
REMARK   11  A    between atoms: _23  and  _24
REMARK   12  A    between atoms: _24  and  _25
REMARK   13  A    between atoms: _34  and  _36
REMARK   14  A    between atoms: _36  and  _37
REMARK   15  A    between atoms: _36  and  _39
REMARK   16  A    between atoms: _39  and  _40
REMARK   17  A    between atoms: _42  and  _44
REMARK   18  A    between atoms: _44  and  _45
REMARK   19  A    between atoms: _44  and  _47
REMARK   20  A    between atoms: _47  and  _48
REMARK   21  A    between atoms: _51  and  _53
REMARK   22  A    between atoms: _53  and  _54
REMARK   23  A    between atoms: _53  and  _56
REMARK   24  A    between atoms: _56  and  _57
REMARK   25  A    between atoms: _59  and  _61
REMARK   26  A    between atoms: _61  and  _62
REMARK   27  A    between atoms: _61  and  _64
REMARK   28  A    between atoms: _64  and  _65
REMARK   29  A    between atoms: _65  and  _66
REMARK   30  A    between atoms: _66  and  _67
REMARK   31  A    between atoms: _67  and  _68
REMARK   32  A    between atoms: _73  and  _74
REMARK   33  A    between atoms: _79  and  _81
REMARK   34  A    between atoms: _81  and  _82
REMARK   35  A    between atoms: _81  and  _84
REMARK   36  A    between atoms: _84  and  _85
REMARK   37  A    between atoms: _90  and  _92
REMARK   38  A    between atoms: _92  and  _93
REMARK   39  A    between atoms: _92  and  _95
REMARK   40  A    between atoms: _95  and  _96
REMARK   41  A    between atoms: _96  and  _97
REMARK   42  A    between atoms: _102  and  _104
REMARK   43  A    between atoms: _104  and  _105
REMARK   44  A    between atoms: _104  and  _107
REMARK   45  A    between atoms: _107  and  _108
REMARK   46  A    between atoms: _108  and  _109
REMARK   47  A    between atoms: _109  and  _110
REMARK   48  A    between atoms: _110  and  _111
REMARK   49  A    between atoms: _115  and  _117
REMARK   50  A    between atoms: _117  and  _118
REMARK   51  A    between atoms: _117  and  _120
REMARK   52  A    between atoms: _120  and  _121
REMARK   53  A    between atoms: _121  and  _122
REMARK   54  A    between atoms: _125  and  _127
REMARK   55  A    between atoms: _127  and  _128
REMARK   56  A    between atoms: _127  and  _130
REMARK   57  A    between atoms: _133  and  _135
REMARK   58  A    between atoms: _135  and  _136
REMARK   59  A    between atoms: _135  and  _138
REMARK   60  A    between atoms: _141  and  _143
REMARK   61  A    between atoms: _143  and  _144
REMARK   62  A    between atoms: _143  and  _146
REMARK   63  A    between atoms: _146  and  _147
REMARK   64  A    between atoms: _149  and  _151
REMARK   65  A    between atoms: _151  and  _152
REMARK   66  A    between atoms: _151  and  _154
REMARK   67  A    between atoms: _154  and  _155
REMARK   68  A    between atoms: _158  and  _160
REMARK   69  A    between atoms: _160  and  _161
REMARK   70  A    between atoms: _164  and  _165
REMARK   71  A    between atoms: _170  and  _172
REMARK   72  A    between atoms: _172  and  _173
REMARK   73  A    between atoms: _172  and  _175
REMARK   74  A    between atoms: _175  and  _176
REMARK   75  A    between atoms: _176  and  _177
REMARK   76  A    between atoms: _182  and  _184
REMARK   77  A    between atoms: _184  and  _185
REMARK   78  A    between atoms: _187  and  _189
REMARK   79  A    between atoms: _189  and  _190
REMARK   80  A    between atoms: _193  and  _195
REMARK   81  A    between atoms: _195  and  _196
REMARK   82  A    between atoms: _195  and  _198
REMARK   83  A    between atoms: _198  and  _199
REMARK   84  A    between atoms: _202  and  _204
REMARK   85  A    between atoms: _204  and  _205
REMARK   86  A    between atoms: _204  and  _207
REMARK   87  A    between atoms: _210  and  _212
REMARK   88  A    between atoms: _212  and  _213
REMARK   89  A    between atoms: _212  and  _215
REMARK   90  A    between atoms: _219  and  _220
REMARK   91  A    between atoms: _226  and  _227
REMARK   92  A    between atoms: _233  and  _234
REMARK   93  A    between atoms: _239  and  _241
REMARK   94  A    between atoms: _241  and  _242
REMARK   95  A    between atoms: _241  and  _244
REMARK   96  A    between atoms: _247  and  _249
REMARK   97  A    between atoms: _249  and  _250
REMARK   98  A    between atoms: _249  and  _252
REMARK   99  A    between atoms: _252  and  _253
REMARK  100  A    between atoms: _253  and  _254
REMARK  101  A    between atoms: _254  and  _255
REMARK  102  A    between atoms: _255  and  _256
REMARK  103  A    between atoms: _260  and  _262
REMARK  104  A    between atoms: _262  and  _263
REMARK  105  A    between atoms: _262  and  _265
REMARK  106  A    between atoms: _265  and  _266
REMARK  107  A    between atoms: _268  and  _270
REMARK  108  A    between atoms: _270  and  _271
REMARK  109  A    between atoms: _270  and  _273
REMARK  110  A    between atoms: _273  and  _274
REMARK  111  A    between atoms: _274  and  _275
REMARK  112  A    between atoms: _280  and  _282
REMARK  113  A    between atoms: _282  and  _283
REMARK  114  A    between atoms: _282  and  _285
REMARK  115  A    between atoms: _285  and  _286
REMARK  116  A    between atoms: _288  and  _290
REMARK  117  A    between atoms: _290  and  _291
REMARK  118  A    between atoms: _290  and  _293
REMARK  119  A    between atoms: _293  and  _294
REMARK  120  A    between atoms: _297  and  _299
REMARK  121  A    between atoms: _299  and  _300
REMARK  122  A    between atoms: _299  and  _302
REMARK  123  A    between atoms: _305  and  _307
REMARK  124  A    between atoms: _307  and  _308
REMARK  125  A    between atoms: _310  and  _312
REMARK  126  A    between atoms: _312  and  _313
REMARK  127  A    between atoms: _316  and  _318
REMARK  128  A    between atoms: _318  and  _319
REMARK  129  A    between atoms: _321  and  _323
REMARK  130  A    between atoms: _323  and  _324
REMARK  131  A    between atoms: _323  and  _326
REMARK  132  A    between atoms: _326  and  _327
REMARK  133  A    between atoms: _330  and  _332
REMARK  134  A    between atoms: _332  and  _333
REMARK  135  A    between atoms: _332  and  _335
REMARK  136  A    between atoms: _335  and  _336
REMARK  137  A    between atoms: _338  and  _340
REMARK  138  A    between atoms: _340  and  _341
REMARK  139  A    between atoms: _340  and  _343
REMARK  140  A    between atoms: _343  and  _344
REMARK  141  A    between atoms: _344  and  _345
REMARK  142  A    between atoms: _347  and  _349
REMARK  143  A    between atoms: _349  and  _350
REMARK  144  A    between atoms: _349  and  _352
REMARK  145  A    between atoms: _355  and  _357
REMARK  146  A    between atoms: _357  and  _358
REMARK  147  A    between atoms: _357  and  _360
REMARK  148  A    between atoms: _360  and  _361
REMARK  149  A    between atoms: _361  and  _362
REMARK  150  A    between atoms: _364  and  _366
REMARK  151  A    between atoms: _366  and  _367
REMARK  152  A    between atoms: _366  and  _369
REMARK  153  A    between atoms: _372  and  _374
REMARK  154  A    between atoms: _374  and  _375
REMARK  155  A    between atoms: _374  and  _377
REMARK  156  A    between atoms: _377  and  _378
REMARK  157  A    between atoms: _378  and  _379
REMARK  158  A    between atoms: _379  and  _380
REMARK  159  A    between atoms: _389  and  _391
REMARK  160  A    between atoms: _391  and  _392
REMARK  161  A    between atoms: _391  and  _394
REMARK  162  A    between atoms: _394  and  _395
REMARK  163  A    between atoms: _401  and  _403
REMARK  164  A    between atoms: _403  and  _404
REMARK  165  A    between atoms: _406  and  _408
REMARK  166  A    between atoms: _408  and  _409
REMARK  167  A    between atoms: _408  and  _411
REMARK  168  A    between atoms: _414  and  _416
REMARK  169  A    between atoms: _416  and  _417
REMARK  170  A    between atoms: _420  and  _422
REMARK  171  A    between atoms: _422  and  _423
REMARK  172  A    between atoms: _426  and  _428
REMARK  173  A    between atoms: _428  and  _429
REMARK  174  A    between atoms: _431  and  _433
REMARK  175  A    between atoms: _433  and  _434
REMARK  176  A    between atoms: _433  and  _436
REMARK  177  A    between atoms: _436  and  _437
REMARK  178  A    between atoms: _439  and  _441
REMARK  179  A    between atoms: _441  and  _442
REMARK  180  A    between atoms: _445  and  _447
REMARK  181  A    between atoms: _447  and  _448
REMARK  182  A    between atoms: _451  and  _453
REMARK  183  A    between atoms: _453  and  _454
REMARK  184  A    between atoms: _453  and  _456
REMARK  185  A    between atoms: _456  and  _457
REMARK  186  A    between atoms: _460  and  _462
REMARK  187  A    between atoms: _462  and  _463
REMARK  188  A    between atoms: _462  and  _465
REMARK  189  A    between atoms: _465  and  _466
REMARK  190  A    between atoms: _469  and  _471
REMARK  191  A    between atoms: _471  and  _472
REMARK  192  A    between atoms: _471  and  _474
REMARK  193  A    between atoms: _474  and  _475
REMARK  194  A    between atoms: _478  and  _480
REMARK  195  A    between atoms: _480  and  _481
REMARK  196  A    between atoms: _480  and  _483
REMARK  197  A    between atoms: _483  and  _484
REMARK  198  A    between atoms: _487  and  _489
REMARK  199  A    between atoms: _489  and  _490
REMARK  200  A    between atoms: _489  and  _492
REMARK  201  A    between atoms: _492  and  _493
REMARK  202  A    between atoms: _496  and  _498
REMARK  203  A    between atoms: _498  and  _499
REMARK  204  A    between atoms: _498  and  _501
REMARK  205  A    between atoms: _501  and  _502
REMARK  206  A    between atoms: _502  and  _503
REMARK  207  A    between atoms: _506  and  _508
REMARK  208  A    between atoms: _508  and  _509
REMARK  209  A    between atoms: _511  and  _513
REMARK  210  A    between atoms: _513  and  _514
REMARK  211  A    between atoms: _513  and  _516
REMARK  212  A    between atoms: _516  and  _517
REMARK  213  A    between atoms: _517  and  _518
REMARK  214  A    between atoms: _518  and  _519
REMARK  215  A    between atoms: _519  and  _520
REMARK  216  A    between atoms: _524  and  _526
REMARK  217  A    between atoms: _526  and  _527
REMARK  218  A    between atoms: _526  and  _529
REMARK  219  A    between atoms: _529  and  _530
REMARK  220  A    between atoms: _530  and  _531
REMARK  221  A    between atoms: _537  and  _538
REMARK  222  A    between atoms: _543  and  _545
REMARK  223  A    between atoms: _545  and  _546
REMARK  224  A    between atoms: _545  and  _548
REMARK  225  A    between atoms: _548  and  _549
REMARK  226  A    between atoms: _549  and  _550
REMARK                            x       y       z     vdW  Elec       q    Type
REMARK                         _______ _______ _______ _____ _____    ______ ____
ROOT
ATOM      1  O   HOH     1       9.482 -18.988   8.313  0.00  0.00    +0.000 OA
ENDROOT
TORSDOF 0
REMARK  Name = ../refined-set-2016/3umo/3umo_pocket.pdb
REMARK  226 active torsions:
REMARK  status: ('A' for Active; 'I' for Inactive)
REMARK    1  A    between atoms: _1  and  _3
REMARK    2  A    between atoms: _3  and  _4
REMARK    3  A    between atoms: _6  and  _8
REMARK    4  A    between atoms: _8  and  _9
REMARK    5  A    between atoms: _8  and  _11
REMARK    6  A    between atoms: _11  and  _12
REMARK    7  A    between atoms: _17  and  _19
REMARK    8  A    between atoms: _19  and  _20
REMARK    9  A    between atoms: _19  and  _22
REMARK   10  A    between atoms: _22  and  _23
REMARK   11  A    between atoms: _23  and  _24
REMARK   12  A    between atoms: _24  and  _25
REMARK   13  A    between atoms: _34  and  _36
REMARK   14  A    between atoms: _36  and  _37
REMARK   15  A    between atoms: _36  and  _39
REMARK   16  A    between atoms: _39  and  _40
REMARK   17  A    between atoms: _42  and  _44
REMARK   18  A    between atoms: _44  and  _45
REMARK   19  A    between atoms: _44  and  _47
REMARK   20  A    between atoms: _47  and  _48
REMARK   21  A    between atoms: _51  and  _53
REMARK   22  A    between atoms: _53  and  _54
REMARK   23  A    between atoms: _53  and  _56
REMARK   24  A    between atoms: _56  and  _57
REMARK   25  A    between atoms: _59  and  _61
REMARK   26  A    between atoms: _61  and  _62
REMARK   27  A    between atoms: _61  and  _64
REMARK   28  A    between atoms: _64  and  _65
REMARK   29  A    between atoms: _65  and  _66
REMARK   30  A    between atoms: _66  and  _67
REMARK   31  A    between atoms: _67  and  _68
REMARK   32  A    between atoms: _73  and  _74
REMARK   33  A    between atoms: _79  and  _81
REMARK   34  A    between atoms: _81  and  _82
REMARK   35  A    between atoms: _81  and  _84
REMARK   36  A    between atoms: _84  and  _85
REMARK   37  A    between atoms: _90  and  _92
REMARK   38  A    between atoms: _92  and  _93
REMARK   39  A    between atoms: _92  and  _95
REMARK   40  A    between atoms: _95  and  _96
REMARK   41  A    between atoms: _96  and  _97
REMARK   42  A    between atoms: _102  and  _104
REMARK   43  A    between atoms: _104  and  _105
REMARK   44  A    between atoms: _104  and  _107
REMARK   45  A    between atoms: _107  and  _108
REMARK   46  A    between atoms: _108  and  _109
REMARK   47  A    between atoms: _109  and  _110
REMARK   48  A    between atoms: _110  and  _111
REMARK   49  A    between atoms: _115  and  _117
REMARK   50  A    between atoms: _117  and  _118
REMARK   51  A    between atoms: _117  and  _120
REMARK   52  A    between atoms: _120  and  _121
REMARK   53  A    between atoms: _121  and  _122
REMARK   54  A    between atoms: _125  and  _127
REMARK   55  A    between atoms: _127  and  _128
REMARK   56  A    between atoms: _127  and  _130
REMARK   57  A    between atoms: _133  and  _135
REMARK   58  A    between atoms: _135  and  _136
REMARK   59  A    between atoms: _135  and  _138
REMARK   60  A    between atoms: _141  and  _143
REMARK   61  A    between atoms: _143  and  _144
REMARK   62  A    between atoms: _143  and  _146
REMARK   63  A    between atoms: _146  and  _147
REMARK   64  A    between atoms: _149  and  _151
REMARK   65  A    between atoms: _151  and  _152
REMARK   66  A    between atoms: _151  and  _154
REMARK   67  A    between atoms: _154  and  _155
REMARK   68  A    between atoms: _158  and  _160
REMARK   69  A    between atoms: _160  and  _161
REMARK   70  A    between atoms: _164  and  _165
REMARK   71  A    between atoms: _170  and  _172
REMARK   72  A    between atoms: _172  and  _173
REMARK   73  A    between atoms: _172  and  _175
REMARK   74  A    between atoms: _175  and  _176
REMARK   75  A    between atoms: _176  and  _177
REMARK   76  A    between atoms: _182  and  _184
REMARK   77  A    between atoms: _184  and  _185
REMARK   78  A    between atoms: _187  and  _189
REMARK   79  A    between atoms: _189  and  _190
REMARK   80  A    between atoms: _193  and  _195
REMARK   81  A    between atoms: _195  and  _196
REMARK   82  A    between atoms: _195  and  _198
REMARK   83  A    between atoms: _198  and  _199
REMARK   84  A    between atoms: _202  and  _204
REMARK   85  A    between atoms: _204  and  _205
REMARK   86  A    between atoms: _204  and  _207
REMARK   87  A    between atoms: _210  and  _212
REMARK   88  A    between atoms: _212  and  _213
REMARK   89  A    between atoms: _212  and  _215
REMARK   90  A    between atoms: _219  and  _220
REMARK   91  A    between atoms: _226  and  _227
REMARK   92  A    between atoms: _233  and  _234
REMARK   93  A    between atoms: _239  and  _241
REMARK   94  A    between atoms: _241  and  _242
REMARK   95  A    between atoms: _241  and  _244
REMARK   96  A    between atoms: _247  and  _249
REMARK   97  A    between atoms: _249  and  _250
REMARK   98  A    between atoms: _249  and  _252
REMARK   99  A    between atoms: _252  and  _253
REMARK  100  A    between atoms: _253  and  _254
REMARK  101  A    between atoms: _254  and  _255
REMARK  102  A    between atoms: _255  and  _256
REMARK  103  A    between atoms: _260  and  _262
REMARK  104  A    between atoms: _262  and  _263
REMARK  105  A    between atoms: _262  and  _265
REMARK  106  A    between atoms: _265  and  _266
REMARK  107  A    between atoms: _268  and  _270
REMARK  108  A    between atoms: _270  and  _271
REMARK  109  A    between atoms: _270  and  _273
REMARK  110  A    between atoms: _273  and  _274
REMARK  111  A    between atoms: _274  and  _275
REMARK  112  A    between atoms: _280  and  _282
REMARK  113  A    between atoms: _282  and  _283
REMARK  114  A    between atoms: _282  and  _285
REMARK  115  A    between atoms: _285  and  _286
REMARK  116  A    between atoms: _288  and  _290
REMARK  117  A    between atoms: _290  and  _291
REMARK  118  A    between atoms: _290  and  _293
REMARK  119  A    between atoms: _293  and  _294
REMARK  120  A    between atoms: _297  and  _299
REMARK  121  A    between atoms: _299  and  _300
REMARK  122  A    between atoms: _299  and  _302
REMARK  123  A    between atoms: _305  and  _307
REMARK  124  A    between atoms: _307  and  _308
REMARK  125  A    between atoms: _310  and  _312
REMARK  126  A    between atoms: _312  and  _313
REMARK  127  A    between atoms: _316  and  _318
REMARK  128  A    between atoms: _318  and  _319
REMARK  129  A    between atoms: _321  and  _323
REMARK  130  A    between atoms: _323  and  _324
REMARK  131  A    between atoms: _323  and  _326
REMARK  132  A    between atoms: _326  and  _327
REMARK  133  A    between atoms: _330  and  _332
REMARK  134  A    between atoms: _332  and  _333
REMARK  135  A    between atoms: _332  and  _335
REMARK  136  A    between atoms: _335  and  _336
REMARK  137  A    between atoms: _338  and  _340
REMARK  138  A    between atoms: _340  and  _341
REMARK  139  A    between atoms: _340  and  _343
REMARK  140  A    between atoms: _343  and  _344
REMARK  141  A    between atoms: _344  and  _345
REMARK  142  A    between atoms: _347  and  _349
REMARK  143  A    between atoms: _349  and  _350
REMARK  144  A    between atoms: _349  and  _352
REMARK  145  A    between atoms: _355  and  _357
REMARK  146  A    between atoms: _357  and  _358
REMARK  147  A    between atoms: _357  and  _360
REMARK  148  A    between atoms: _360  and  _361
REMARK  149  A    between atoms: _361  and  _362
REMARK  150  A    between atoms: _364  and  _366
REMARK  151  A    between atoms: _366  and  _367
REMARK  152  A    between atoms: _366  and  _369
REMARK  153  A    between atoms: _372  and  _374
REMARK  154  A    between atoms: _374  and  _375
REMARK  155  A    between atoms: _374  and  _377
REMARK  156  A    between atoms: _377  and  _378
REMARK  157  A    between atoms: _378  and  _379
REMARK  158  A    between atoms: _379  and  _380
REMARK  159  A    between atoms: _389  and  _391
REMARK  160  A    between atoms: _391  and  _392
REMARK  161  A    between atoms: _391  and  _394
REMARK  162  A    between atoms: _394  and  _395
REMARK  163  A    between atoms: _401  and  _403
REMARK  164  A    between atoms: _403  and  _404
REMARK  165  A    between atoms: _406  and  _408
REMARK  166  A    between atoms: _408  and  _409
REMARK  167  A    between atoms: _408  and  _411
REMARK  168  A    between atoms: _414  and  _416
REMARK  169  A    between atoms: _416  and  _417
REMARK  170  A    between atoms: _420  and  _422
REMARK  171  A    between atoms: _422  and  _423
REMARK  172  A    between atoms: _426  and  _428
REMARK  173  A    between atoms: _428  and  _429
REMARK  174  A    between atoms: _431  and  _433
REMARK  175  A    between atoms: _433  and  _434
REMARK  176  A    between atoms: _433  and  _436
REMARK  177  A    between atoms: _436  and  _437
REMARK  178  A    between atoms: _439  and  _441
REMARK  179  A    between atoms: _441  and  _442
REMARK  180  A    between atoms: _445  and  _447
REMARK  181  A    between atoms: _447  and  _448
REMARK  182  A    between atoms: _451  and  _453
REMARK  183  A    between atoms: _453  and  _454
REMARK  184  A    between atoms: _453  and  _456
REMARK  185  A    between atoms: _456  and  _457
REMARK  186  A    between atoms: _460  and  _462
REMARK  187  A    between atoms: _462  and  _463
REMARK  188  A    between atoms: _462  and  _465
REMARK  189  A    between atoms: _465  and  _466
REMARK  190  A    between atoms: _469  and  _471
REMARK  191  A    between atoms: _471  and  _472
REMARK  192  A    between atoms: _471  and  _474
REMARK  193  A    between atoms: _474  and  _475
REMARK  194  A    between atoms: _478  and  _480
REMARK  195  A    between atoms: _480  and  _481
REMARK  196  A    between atoms: _480  and  _483
REMARK  197  A    between atoms: _483  and  _484
REMARK  198  A    between atoms: _487  and  _489
REMARK  199  A    between atoms: _489  and  _490
REMARK  200  A    between atoms: _489  and  _492
REMARK  201  A    between atoms: _492  and  _493
REMARK  202  A    between atoms: _496  and  _498
REMARK  203  A    between atoms: _498  and  _499
REMARK  204  A    between atoms: _498  and  _501
REMARK  205  A    between atoms: _501  and  _502
REMARK  206  A    between atoms: _502  and  _503
REMARK  207  A    between atoms: _506  and  _508
REMARK  208  A    between atoms: _508  and  _509
REMARK  209  A    between atoms: _511  and  _513
REMARK  210  A    between atoms: _513  and  _514
REMARK  211  A    between atoms: _513  and  _516
REMARK  212  A    between atoms: _516  and  _517
REMARK  213  A    between atoms: _517  and  _518
REMARK  214  A    between atoms: _518  and  _519
REMARK  215  A    between atoms: _519  and  _520
REMARK  216  A    between atoms: _524  and  _526
REMARK  217  A    between atoms: _526  and  _527
REMARK  218  A    between atoms: _526  and  _529
REMARK  219  A    between atoms: _529  and  _530
REMARK  220  A    between atoms: _530  and  _531
REMARK  221  A    between atoms: _537  and  _538
REMARK  222  A    between atoms: _543  and  _545
REMARK  223  A    between atoms: _545  and  _546
REMARK  224  A    between atoms: _545  and  _548
REMARK  225  A    between atoms: _548  and  _549
REMARK  226  A    between atoms: _549  and  _550
REMARK                            x       y       z     vdW  Elec       q    Type
REMARK                         _______ _______ _______ _____ _____    ______ ____
ROOT
ATOM      1  O   HOH     1      12.502 -15.762  16.553  0.00  0.00    +0.000 OA
ENDROOT
TORSDOF 0
REMARK  Name = ../refined-set-2016/3umo/3umo_pocket.pdb
REMARK  226 active torsions:
REMARK  status: ('A' for Active; 'I' for Inactive)
REMARK    1  A    between atoms: _1  and  _3
REMARK    2  A    between atoms: _3  and  _4
REMARK    3  A    between atoms: _6  and  _8
REMARK    4  A    between atoms: _8  and  _9
REMARK    5  A    between atoms: _8  and  _11
REMARK    6  A    between atoms: _11  and  _12
REMARK    7  A    between atoms: _17  and  _19
REMARK    8  A    between atoms: _19  and  _20
REMARK    9  A    between atoms: _19  and  _22
REMARK   10  A    between atoms: _22  and  _23
REMARK   11  A    between atoms: _23  and  _24
REMARK   12  A    between atoms: _24  and  _25
REMARK   13  A    between atoms: _34  and  _36
REMARK   14  A    between atoms: _36  and  _37
REMARK   15  A    between atoms: _36  and  _39
REMARK   16  A    between atoms: _39  and  _40
REMARK   17  A    between atoms: _42  and  _44
REMARK   18  A    between atoms: _44  and  _45
REMARK   19  A    between atoms: _44  and  _47
REMARK   20  A    between atoms: _47  and  _48
REMARK   21  A    between atoms: _51  and  _53
REMARK   22  A    between atoms: _53  and  _54
REMARK   23  A    between atoms: _53  and  _56
REMARK   24  A    between atoms: _56  and  _57
REMARK   25  A    between atoms: _59  and  _61
REMARK   26  A    between atoms: _61  and  _62
REMARK   27  A    between atoms: _61  and  _64
REMARK   28  A    between atoms: _64  and  _65
REMARK   29  A    between atoms: _65  and  _66
REMARK   30  A    between atoms: _66  and  _67
REMARK   31  A    between atoms: _67  and  _68
REMARK   32  A    between atoms: _73  and  _74
REMARK   33  A    between atoms: _79  and  _81
REMARK   34  A    between atoms: _81  and  _82
REMARK   35  A    between atoms: _81  and  _84
REMARK   36  A    between atoms: _84  and  _85
REMARK   37  A    between atoms: _90  and  _92
REMARK   38  A    between atoms: _92  and  _93
REMARK   39  A    between atoms: _92  and  _95
REMARK   40  A    between atoms: _95  and  _96
REMARK   41  A    between atoms: _96  and  _97
REMARK   42  A    between atoms: _102  and  _104
REMARK   43  A    between atoms: _104  and  _105
REMARK   44  A    between atoms: _104  and  _107
REMARK   45  A    between atoms: _107  and  _108
REMARK   46  A    between atoms: _108  and  _109
REMARK   47  A    between atoms: _109  and  _110
REMARK   48  A    between atoms: _110  and  _111
REMARK   49  A    between atoms: _115  and  _117
REMARK   50  A    between atoms: _117  and  _118
REMARK   51  A    between atoms: _117  and  _120
REMARK   52  A    between atoms: _120  and  _121
REMARK   53  A    between atoms: _121  and  _122
REMARK   54  A    between atoms: _125  and  _127
REMARK   55  A    between atoms: _127  and  _128
REMARK   56  A    between atoms: _127  and  _130
REMARK   57  A    between atoms: _133  and  _135
REMARK   58  A    between atoms: _135  and  _136
REMARK   59  A    between atoms: _135  and  _138
REMARK   60  A    between atoms: _141  and  _143
REMARK   61  A    between atoms: _143  and  _144
REMARK   62  A    between atoms: _143  and  _146
REMARK   63  A    between atoms: _146  and  _147
REMARK   64  A    between atoms: _149  and  _151
REMARK   65  A    between atoms: _151  and  _152
REMARK   66  A    between atoms: _151  and  _154
REMARK   67  A    between atoms: _154  and  _155
REMARK   68  A    between atoms: _158  and  _160
REMARK   69  A    between atoms: _160  and  _161
REMARK   70  A    between atoms: _164  and  _165
REMARK   71  A    between atoms: _170  and  _172
REMARK   72  A    between atoms: _172  and  _173
REMARK   73  A    between atoms: _172  and  _175
REMARK   74  A    between atoms: _175  and  _176
REMARK   75  A    between atoms: _176  and  _177
REMARK   76  A    between atoms: _182  and  _184
REMARK   77  A    between atoms: _184  and  _185
REMARK   78  A    between atoms: _187  and  _189
REMARK   79  A    between atoms: _189  and  _190
REMARK   80  A    between atoms: _193  and  _195
REMARK   81  A    between atoms: _195  and  _196
REMARK   82  A    between atoms: _195  and  _198
REMARK   83  A    between atoms: _198  and  _199
REMARK   84  A    between atoms: _202  and  _204
REMARK   85  A    between atoms: _204  and  _205
REMARK   86  A    between atoms: _204  and  _207
REMARK   87  A    between atoms: _210  and  _212
REMARK   88  A    between atoms: _212  and  _213
REMARK   89  A    between atoms: _212  and  _215
REMARK   90  A    between atoms: _219  and  _220
REMARK   91  A    between atoms: _226  and  _227
REMARK   92  A    between atoms: _233  and  _234
REMARK   93  A    between atoms: _239  and  _241
REMARK   94  A    between atoms: _241  and  _242
REMARK   95  A    between atoms: _241  and  _244
REMARK   96  A    between atoms: _247  and  _249
REMARK   97  A    between atoms: _249  and  _250
REMARK   98  A    between atoms: _249  and  _252
REMARK   99  A    between atoms: _252  and  _253
REMARK  100  A    between atoms: _253  and  _254
REMARK  101  A    between atoms: _254  and  _255
REMARK  102  A    between atoms: _255  and  _256
REMARK  103  A    between atoms: _260  and  _262
REMARK  104  A    between atoms: _262  and  _263
REMARK  105  A    between atoms: _262  and  _265
REMARK  106  A    between atoms: _265  and  _266
REMARK  107  A    between atoms: _268  and  _270
REMARK  108  A    between atoms: _270  and  _271
REMARK  109  A    between atoms: _270  and  _273
REMARK  110  A    between atoms: _273  and  _274
REMARK  111  A    between atoms: _274  and  _275
REMARK  112  A    between atoms: _280  and  _282
REMARK  113  A    between atoms: _282  and  _283
REMARK  114  A    between atoms: _282  and  _285
REMARK  115  A    between atoms: _285  and  _286
REMARK  116  A    between atoms: _288  and  _290
REMARK  117  A    between atoms: _290  and  _291
REMARK  118  A    between atoms: _290  and  _293
REMARK  119  A    between atoms: _293  and  _294
REMARK  120  A    between atoms: _297  and  _299
REMARK  121  A    between atoms: _299  and  _300
REMARK  122  A    between atoms: _299  and  _302
REMARK  123  A    between atoms: _305  and  _307
REMARK  124  A    between atoms: _307  and  _308
REMARK  125  A    between atoms: _310  and  _312
REMARK  126  A    between atoms: _312  and  _313
REMARK  127  A    between atoms: _316  and  _318
REMARK  128  A    between atoms: _318  and  _319
REMARK  129  A    between atoms: _321  and  _323
REMARK  130  A    between atoms: _323  and  _324
REMARK  131  A    between atoms: _323  and  _326
REMARK  132  A    between atoms: _326  and  _327
REMARK  133  A    between atoms: _330  and  _332
REMARK  134  A    between atoms: _332  and  _333
REMARK  135  A    between atoms: _332  and  _335
REMARK  136  A    between atoms: _335  and  _336
REMARK  137  A    between atoms: _338  and  _340
REMARK  138  A    between atoms: _340  and  _341
REMARK  139  A    between atoms: _340  and  _343
REMARK  140  A    between atoms: _343  and  _344
REMARK  141  A    between atoms: _344  and  _345
REMARK  142  A    between atoms: _347  and  _349
REMARK  143  A    between atoms: _349  and  _350
REMARK  144  A    between atoms: _349  and  _352
REMARK  145  A    between atoms: _355  and  _357
REMARK  146  A    between atoms: _357  and  _358
REMARK  147  A    between atoms: _357  and  _360
REMARK  148  A    between atoms: _360  and  _361
REMARK  149  A    between atoms: _361  and  _362
REMARK  150  A    between atoms: _364  and  _366
REMARK  151  A    between atoms: _366  and  _367
REMARK  152  A    between atoms: _366  and  _369
REMARK  153  A    between atoms: _372  and  _374
REMARK  154  A    between atoms: _374  and  _375
REMARK  155  A    between atoms: _374  and  _377
REMARK  156  A    between atoms: _377  and  _378
REMARK  157  A    between atoms: _378  and  _379
REMARK  158  A    between atoms: _379  and  _380
REMARK  159  A    between atoms: _389  and  _391
REMARK  160  A    between atoms: _391  and  _392
REMARK  161  A    between atoms: _391  and  _394
REMARK  162  A    between atoms: _394  and  _395
REMARK  163  A    between atoms: _401  and  _403
REMARK  164  A    between atoms: _403  and  _404
REMARK  165  A    between atoms: _406  and  _408
REMARK  166  A    between atoms: _408  and  _409
REMARK  167  A    between atoms: _408  and  _411
REMARK  168  A    between atoms: _414  and  _416
REMARK  169  A    between atoms: _416  and  _417
REMARK  170  A    between atoms: _420  and  _422
REMARK  171  A    between atoms: _422  and  _423
REMARK  172  A    between atoms: _426  and  _428
REMARK  173  A    between atoms: _428  and  _429
REMARK  174  A    between atoms: _431  and  _433
REMARK  175  A    between atoms: _433  and  _434
REMARK  176  A    between atoms: _433  and  _436
REMARK  177  A    between atoms: _436  and  _437
REMARK  178  A    between atoms: _439  and  _441
REMARK  179  A    between atoms: _441  and  _442
REMARK  180  A    between atoms: _445  and  _447
REMARK  181  A    between atoms: _447  and  _448
REMARK  182  A    between atoms: _451  and  _453
REMARK  183  A    between atoms: _453  and  _454
REMARK  184  A    between atoms: _453  and  _456
REMARK  185  A    between atoms: _456  and  _457
REMARK  186  A    between atoms: _460  and  _462
REMARK  187  A    between atoms: _462  and  _463
REMARK  188  A    between atoms: _462  and  _465
REMARK  189  A    between atoms: _465  and  _466
REMARK  190  A    between atoms: _469  and  _471
REMARK  191  A    between atoms: _471  and  _472
REMARK  192  A    between atoms: _471  and  _474
REMARK  193  A    between atoms: _474  and  _475
REMARK  194  A    between atoms: _478  and  _480
REMARK  195  A    between atoms: _480  and  _481
REMARK  196  A    between atoms: _480  and  _483
REMARK  197  A    between atoms: _483  and  _484
REMARK  198  A    between atoms: _487  and  _489
REMARK  199  A    between atoms: _489  and  _490
REMARK  200  A    between atoms: _489  and  _492
REMARK  201  A    between atoms: _492  and  _493
REMARK  202  A    between atoms: _496  and  _498
REMARK  203  A    between atoms: _498  and  _499
REMARK  204  A    between atoms: _498  and  _501
REMARK  205  A    between atoms: _501  and  _502
REMARK  206  A    between atoms: _502  and  _503
REMARK  207  A    between atoms: _506  and  _508
REMARK  208  A    between atoms: _508  and  _509
REMARK  209  A    between atoms: _511  and  _513
REMARK  210  A    between atoms: _513  and  _514
REMARK  211  A    between atoms: _513  and  _516
REMARK  212  A    between atoms: _516  and  _517
REMARK  213  A    between atoms: _517  and  _518
REMARK  214  A    between atoms: _518  and  _519
REMARK  215  A    between atoms: _519  and  _520
REMARK  216  A    between atoms: _524  and  _526
REMARK  217  A    between atoms: _526  and  _527
REMARK  218  A    between atoms: _526  and  _529
REMARK  219  A    between atoms: _529  and  _530
REMARK  220  A    between atoms: _530  and  _531
REMARK  221  A    between atoms: _537  and  _538
REMARK  222  A    between atoms: _543  and  _545
REMARK  223  A    between atoms: _545  and  _546
REMARK  224  A    between atoms: _545  and  _548
REMARK  225  A    between atoms: _548  and  _549
REMARK  226  A    between atoms: _549  and  _550
REMARK                            x       y       z     vdW  Elec       q    Type
REMARK                         _______ _______ _______ _____ _____    ______ ____
ROOT
ATOM      1  O   HOH     1      15.314 -13.362  16.548  0.00  0.00    +0.000 OA
ENDROOT
TORSDOF 0
REMARK  Name = ../refined-set-2016/3umo/3umo_pocket.pdb
REMARK  226 active torsions:
REMARK  status: ('A' for Active; 'I' for Inactive)
REMARK    1  A    between atoms: _1  and  _3
REMARK    2  A    between atoms: _3  and  _4
REMARK    3  A    between atoms: _6  and  _8
REMARK    4  A    between atoms: _8  and  _9
REMARK    5  A    between atoms: _8  and  _11
REMARK    6  A    between atoms: _11  and  _12
REMARK    7  A    between atoms: _17  and  _19
REMARK    8  A    between atoms: _19  and  _20
REMARK    9  A    between atoms: _19  and  _22
REMARK   10  A    between atoms: _22  and  _23
REMARK   11  A    between atoms: _23  and  _24
REMARK   12  A    between atoms: _24  and  _25
REMARK   13  A    between atoms: _34  and  _36
REMARK   14  A    between atoms: _36  and  _37
REMARK   15  A    between atoms: _36  and  _39
REMARK   16  A    between atoms: _39  and  _40
REMARK   17  A    between atoms: _42  and  _44
REMARK   18  A    between atoms: _44  and  _45
REMARK   19  A    between atoms: _44  and  _47
REMARK   20  A    between atoms: _47  and  _48
REMARK   21  A    between atoms: _51  and  _53
REMARK   22  A    between atoms: _53  and  _54
REMARK   23  A    between atoms: _53  and  _56
REMARK   24  A    between atoms: _56  and  _57
REMARK   25  A    between atoms: _59  and  _61
REMARK   26  A    between atoms: _61  and  _62
REMARK   27  A    between atoms: _61  and  _64
REMARK   28  A    between atoms: _64  and  _65
REMARK   29  A    between atoms: _65  and  _66
REMARK   30  A    between atoms: _66  and  _67
REMARK   31  A    between atoms: _67  and  _68
REMARK   32  A    between atoms: _73  and  _74
REMARK   33  A    between atoms: _79  and  _81
REMARK   34  A    between atoms: _81  and  _82
REMARK   35  A    between atoms: _81  and  _84
REMARK   36  A    between atoms: _84  and  _85
REMARK   37  A    between atoms: _90  and  _92
REMARK   38  A    between atoms: _92  and  _93
REMARK   39  A    between atoms: _92  and  _95
REMARK   40  A    between atoms: _95  and  _96
REMARK   41  A    between atoms: _96  and  _97
REMARK   42  A    between atoms: _102  and  _104
REMARK   43  A    between atoms: _104  and  _105
REMARK   44  A    between atoms: _104  and  _107
REMARK   45  A    between atoms: _107  and  _108
REMARK   46  A    between atoms: _108  and  _109
REMARK   47  A    between atoms: _109  and  _110
REMARK   48  A    between atoms: _110  and  _111
REMARK   49  A    between atoms: _115  and  _117
REMARK   50  A    between atoms: _117  and  _118
REMARK   51  A    between atoms: _117  and  _120
REMARK   52  A    between atoms: _120  and  _121
REMARK   53  A    between atoms: _121  and  _122
REMARK   54  A    between atoms: _125  and  _127
REMARK   55  A    between atoms: _127  and  _128
REMARK   56  A    between atoms: _127  and  _130
REMARK   57  A    between atoms: _133  and  _135
REMARK   58  A    between atoms: _135  and  _136
REMARK   59  A    between atoms: _135  and  _138
REMARK   60  A    between atoms: _141  and  _143
REMARK   61  A    between atoms: _143  and  _144
REMARK   62  A    between atoms: _143  and  _146
REMARK   63  A    between atoms: _146  and  _147
REMARK   64  A    between atoms: _149  and  _151
REMARK   65  A    between atoms: _151  and  _152
REMARK   66  A    between atoms: _151  and  _154
REMARK   67  A    between atoms: _154  and  _155
REMARK   68  A    between atoms: _158  and  _160
REMARK   69  A    between atoms: _160  and  _161
REMARK   70  A    between atoms: _164  and  _165
REMARK   71  A    between atoms: _170  and  _172
REMARK   72  A    between atoms: _172  and  _173
REMARK   73  A    between atoms: _172  and  _175
REMARK   74  A    between atoms: _175  and  _176
REMARK   75  A    between atoms: _176  and  _177
REMARK   76  A    between atoms: _182  and  _184
REMARK   77  A    between atoms: _184  and  _185
REMARK   78  A    between atoms: _187  and  _189
REMARK   79  A    between atoms: _189  and  _190
REMARK   80  A    between atoms: _193  and  _195
REMARK   81  A    between atoms: _195  and  _196
REMARK   82  A    between atoms: _195  and  _198
REMARK   83  A    between atoms: _198  and  _199
REMARK   84  A    between atoms: _202  and  _204
REMARK   85  A    between atoms: _204  and  _205
REMARK   86  A    between atoms: _204  and  _207
REMARK   87  A    between atoms: _210  and  _212
REMARK   88  A    between atoms: _212  and  _213
REMARK   89  A    between atoms: _212  and  _215
REMARK   90  A    between atoms: _219  and  _220
REMARK   91  A    between atoms: _226  and  _227
REMARK   92  A    between atoms: _233  and  _234
REMARK   93  A    between atoms: _239  and  _241
REMARK   94  A    between atoms: _241  and  _242
REMARK   95  A    between atoms: _241  and  _244
REMARK   96  A    between atoms: _247  and  _249
REMARK   97  A    between atoms: _249  and  _250
REMARK   98  A    between atoms: _249  and  _252
REMARK   99  A    between atoms: _252  and  _253
REMARK  100  A    between atoms: _253  and  _254
REMARK  101  A    between atoms: _254  and  _255
REMARK  102  A    between atoms: _255  and  _256
REMARK  103  A    between atoms: _260  and  _262
REMARK  104  A    between atoms: _262  and  _263
REMARK  105  A    between atoms: _262  and  _265
REMARK  106  A    between atoms: _265  and  _266
REMARK  107  A    between atoms: _268  and  _270
REMARK  108  A    between atoms: _270  and  _271
REMARK  109  A    between atoms: _270  and  _273
REMARK  110  A    between atoms: _273  and  _274
REMARK  111  A    between atoms: _274  and  _275
REMARK  112  A    between atoms: _280  and  _282
REMARK  113  A    between atoms: _282  and  _283
REMARK  114  A    between atoms: _282  and  _285
REMARK  115  A    between atoms: _285  and  _286
REMARK  116  A    between atoms: _288  and  _290
REMARK  117  A    between atoms: _290  and  _291
REMARK  118  A    between atoms: _290  and  _293
REMARK  119  A    between atoms: _293  and  _294
REMARK  120  A    between atoms: _297  and  _299
REMARK  121  A    between atoms: _299  and  _300
REMARK  122  A    between atoms: _299  and  _302
REMARK  123  A    between atoms: _305  and  _307
REMARK  124  A    between atoms: _307  and  _308
REMARK  125  A    between atoms: _310  and  _312
REMARK  126  A    between atoms: _312  and  _313
REMARK  127  A    between atoms: _316  and  _318
REMARK  128  A    between atoms: _318  and  _319
REMARK  129  A    between atoms: _321  and  _323
REMARK  130  A    between atoms: _323  and  _324
REMARK  131  A    between atoms: _323  and  _326
REMARK  132  A    between atoms: _326  and  _327
REMARK  133  A    between atoms: _330  and  _332
REMARK  134  A    between atoms: _332  and  _333
REMARK  135  A    between atoms: _332  and  _335
REMARK  136  A    between atoms: _335  and  _336
REMARK  137  A    between atoms: _338  and  _340
REMARK  138  A    between atoms: _340  and  _341
REMARK  139  A    between atoms: _340  and  _343
REMARK  140  A    between atoms: _343  and  _344
REMARK  141  A    between atoms: _344  and  _345
REMARK  142  A    between atoms: _347  and  _349
REMARK  143  A    between atoms: _349  and  _350
REMARK  144  A    between atoms: _349  and  _352
REMARK  145  A    between atoms: _355  and  _357
REMARK  146  A    between atoms: _357  and  _358
REMARK  147  A    between atoms: _357  and  _360
REMARK  148  A    between atoms: _360  and  _361
REMARK  149  A    between atoms: _361  and  _362
REMARK  150  A    between atoms: _364  and  _366
REMARK  151  A    between atoms: _366  and  _367
REMARK  152  A    between atoms: _366  and  _369
REMARK  153  A    between atoms: _372  and  _374
REMARK  154  A    between atoms: _374  and  _375
REMARK  155  A    between atoms: _374  and  _377
REMARK  156  A    between atoms: _377  and  _378
REMARK  157  A    between atoms: _378  and  _379
REMARK  158  A    between atoms: _379  and  _380
REMARK  159  A    between atoms: _389  and  _391
REMARK  160  A    between atoms: _391  and  _392
REMARK  161  A    between atoms: _391  and  _394
REMARK  162  A    between atoms: _394  and  _395
REMARK  163  A    between atoms: _401  and  _403
REMARK  164  A    between atoms: _403  and  _404
REMARK  165  A    between atoms: _406  and  _408
REMARK  166  A    between atoms: _408  and  _409
REMARK  167  A    between atoms: _408  and  _411
REMARK  168  A    between atoms: _414  and  _416
REMARK  169  A    between atoms: _416  and  _417
REMARK  170  A    between atoms: _420  and  _422
REMARK  171  A    between atoms: _422  and  _423
REMARK  172  A    between atoms: _426  and  _428
REMARK  173  A    between atoms: _428  and  _429
REMARK  174  A    between atoms: _431  and  _433
REMARK  175  A    between atoms: _433  and  _434
REMARK  176  A    between atoms: _433  and  _436
REMARK  177  A    between atoms: _436  and  _437
REMARK  178  A    between atoms: _439  and  _441
REMARK  179  A    between atoms: _441  and  _442
REMARK  180  A    between atoms: _445  and  _447
REMARK  181  A    between atoms: _447  and  _448
REMARK  182  A    between atoms: _451  and  _453
REMARK  183  A    between atoms: _453  and  _454
REMARK  184  A    between atoms: _453  and  _456
REMARK  185  A    between atoms: _456  and  _457
REMARK  186  A    between atoms: _460  and  _462
REMARK  187  A    between atoms: _462  and  _463
REMARK  188  A    between atoms: _462  and  _465
REMARK  189  A    between atoms: _465  and  _466
REMARK  190  A    between atoms: _469  and  _471
REMARK  191  A    between atoms: _471  and  _472
REMARK  192  A    between atoms: _471  and  _474
REMARK  193  A    between atoms: _474  and  _475
REMARK  194  A    between atoms: _478  and  _480
REMARK  195  A    between atoms: _480  and  _481
REMARK  196  A    between atoms: _480  and  _483
REMARK  197  A    between atoms: _483  and  _484
REMARK  198  A    between atoms: _487  and  _489
REMARK  199  A    between atoms: _489  and  _490
REMARK  200  A    between atoms: _489  and  _492
REMARK  201  A    between atoms: _492  and  _493
REMARK  202  A    between atoms: _496  and  _498
REMARK  203  A    between atoms: _498  and  _499
REMARK  204  A    between atoms: _498  and  _501
REMARK  205  A    between atoms: _501  and  _502
REMARK  206  A    between atoms: _502  and  _503
REMARK  207  A    between atoms: _506  and  _508
REMARK  208  A    between atoms: _508  and  _509
REMARK  209  A    between atoms: _511  and  _513
REMARK  210  A    between atoms: _513  and  _514
REMARK  211  A    between atoms: _513  and  _516
REMARK  212  A    between atoms: _516  and  _517
REMARK  213  A    between atoms: _517  and  _518
REMARK  214  A    between atoms: _518  and  _519
REMARK  215  A    between atoms: _519  and  _520
REMARK  216  A    between atoms: _524  and  _526
REMARK  217  A    between atoms: _526  and  _527
REMARK  218  A    between atoms: _526  and  _529
REMARK  219  A    between atoms: _529  and  _530
REMARK  220  A    between atoms: _530  and  _531
REMARK  221  A    between atoms: _537  and  _538
REMARK  222  A    between atoms: _543  and  _545
REMARK  223  A    between atoms: _545  and  _546
REMARK  224  A    between atoms: _545  and  _548
REMARK  225  A    between atoms: _548  and  _549
REMARK  226  A    between atoms: _549  and  _550
REMARK                            x       y       z     vdW  Elec       q    Type
REMARK                         _______ _______ _______ _____ _____    ______ ____
ROOT
ATOM      1  O   HOH     1      15.431 -12.229  11.362  0.00  0.00    +0.000 OA
ENDROOT
TORSDOF 0
REMARK  Name = ../refined-set-2016/3umo/3umo_pocket.pdb
REMARK  226 active torsions:
REMARK  status: ('A' for Active; 'I' for Inactive)
REMARK    1  A    between atoms: _1  and  _3
REMARK    2  A    between atoms: _3  and  _4
REMARK    3  A    between atoms: _6  and  _8
REMARK    4  A    between atoms: _8  and  _9
REMARK    5  A    between atoms: _8  and  _11
REMARK    6  A    between atoms: _11  and  _12
REMARK    7  A    between atoms: _17  and  _19
REMARK    8  A    between atoms: _19  and  _20
REMARK    9  A    between atoms: _19  and  _22
REMARK   10  A    between atoms: _22  and  _23
REMARK   11  A    between atoms: _23  and  _24
REMARK   12  A    between atoms: _24  and  _25
REMARK   13  A    between atoms: _34  and  _36
REMARK   14  A    between atoms: _36  and  _37
REMARK   15  A    between atoms: _36  and  _39
REMARK   16  A    between atoms: _39  and  _40
REMARK   17  A    between atoms: _42  and  _44
REMARK   18  A    between atoms: _44  and  _45
REMARK   19  A    between atoms: _44  and  _47
REMARK   20  A    between atoms: _47  and  _48
REMARK   21  A    between atoms: _51  and  _53
REMARK   22  A    between atoms: _53  and  _54
REMARK   23  A    between atoms: _53  and  _56
REMARK   24  A    between atoms: _56  and  _57
REMARK   25  A    between atoms: _59  and  _61
REMARK   26  A    between atoms: _61  and  _62
REMARK   27  A    between atoms: _61  and  _64
REMARK   28  A    between atoms: _64  and  _65
REMARK   29  A    between atoms: _65  and  _66
REMARK   30  A    between atoms: _66  and  _67
REMARK   31  A    between atoms: _67  and  _68
REMARK   32  A    between atoms: _73  and  _74
REMARK   33  A    between atoms: _79  and  _81
REMARK   34  A    between atoms: _81  and  _82
REMARK   35  A    between atoms: _81  and  _84
REMARK   36  A    between atoms: _84  and  _85
REMARK   37  A    between atoms: _90  and  _92
REMARK   38  A    between atoms: _92  and  _93
REMARK   39  A    between atoms: _92  and  _95
REMARK   40  A    between atoms: _95  and  _96
REMARK   41  A    between atoms: _96  and  _97
REMARK   42  A    between atoms: _102  and  _104
REMARK   43  A    between atoms: _104  and  _105
REMARK   44  A    between atoms: _104  and  _107
REMARK   45  A    between atoms: _107  and  _108
REMARK   46  A    between atoms: _108  and  _109
REMARK   47  A    between atoms: _109  and  _110
REMARK   48  A    between atoms: _110  and  _111
REMARK   49  A    between atoms: _115  and  _117
REMARK   50  A    between atoms: _117  and  _118
REMARK   51  A    between atoms: _117  and  _120
REMARK   52  A    between atoms: _120  and  _121
REMARK   53  A    between atoms: _121  and  _122
REMARK   54  A    between atoms: _125  and  _127
REMARK   55  A    between atoms: _127  and  _128
REMARK   56  A    between atoms: _127  and  _130
REMARK   57  A    between atoms: _133  and  _135
REMARK   58  A    between atoms: _135  and  _136
REMARK   59  A    between atoms: _135  and  _138
REMARK   60  A    between atoms: _141  and  _143
REMARK   61  A    between atoms: _143  and  _144
REMARK   62  A    between atoms: _143  and  _146
REMARK   63  A    between atoms: _146  and  _147
REMARK   64  A    between atoms: _149  and  _151
REMARK   65  A    between atoms: _151  and  _152
REMARK   66  A    between atoms: _151  and  _154
REMARK   67  A    between atoms: _154  and  _155
REMARK   68  A    between atoms: _158  and  _160
REMARK   69  A    between atoms: _160  and  _161
REMARK   70  A    between atoms: _164  and  _165
REMARK   71  A    between atoms: _170  and  _172
REMARK   72  A    between atoms: _172  and  _173
REMARK   73  A    between atoms: _172  and  _175
REMARK   74  A    between atoms: _175  and  _176
REMARK   75  A    between atoms: _176  and  _177
REMARK   76  A    between atoms: _182  and  _184
REMARK   77  A    between atoms: _184  and  _185
REMARK   78  A    between atoms: _187  and  _189
REMARK   79  A    between atoms: _189  and  _190
REMARK   80  A    between atoms: _193  and  _195
REMARK   81  A    between atoms: _195  and  _196
REMARK   82  A    between atoms: _195  and  _198
REMARK   83  A    between atoms: _198  and  _199
REMARK   84  A    between atoms: _202  and  _204
REMARK   85  A    between atoms: _204  and  _205
REMARK   86  A    between atoms: _204  and  _207
REMARK   87  A    between atoms: _210  and  _212
REMARK   88  A    between atoms: _212  and  _213
REMARK   89  A    between atoms: _212  and  _215
REMARK   90  A    between atoms: _219  and  _220
REMARK   91  A    between atoms: _226  and  _227
REMARK   92  A    between atoms: _233  and  _234
REMARK   93  A    between atoms: _239  and  _241
REMARK   94  A    between atoms: _241  and  _242
REMARK   95  A    between atoms: _241  and  _244
REMARK   96  A    between atoms: _247  and  _249
REMARK   97  A    between atoms: _249  and  _250
REMARK   98  A    between atoms: _249  and  _252
REMARK   99  A    between atoms: _252  and  _253
REMARK  100  A    between atoms: _253  and  _254
REMARK  101  A    between atoms: _254  and  _255
REMARK  102  A    between atoms: _255  and  _256
REMARK  103  A    between atoms: _260  and  _262
REMARK  104  A    between atoms: _262  and  _263
REMARK  105  A    between atoms: _262  and  _265
REMARK  106  A    between atoms: _265  and  _266
REMARK  107  A    between atoms: _268  and  _270
REMARK  108  A    between atoms: _270  and  _271
REMARK  109  A    between atoms: _270  and  _273
REMARK  110  A    between atoms: _273  and  _274
REMARK  111  A    between atoms: _274  and  _275
REMARK  112  A    between atoms: _280  and  _282
REMARK  113  A    between atoms: _282  and  _283
REMARK  114  A    between atoms: _282  and  _285
REMARK  115  A    between atoms: _285  and  _286
REMARK  116  A    between atoms: _288  and  _290
REMARK  117  A    between atoms: _290  and  _291
REMARK  118  A    between atoms: _290  and  _293
REMARK  119  A    between atoms: _293  and  _294
REMARK  120  A    between atoms: _297  and  _299
REMARK  121  A    between atoms: _299  and  _300
REMARK  122  A    between atoms: _299  and  _302
REMARK  123  A    between atoms: _305  and  _307
REMARK  124  A    between atoms: _307  and  _308
REMARK  125  A    between atoms: _310  and  _312
REMARK  126  A    between atoms: _312  and  _313
REMARK  127  A    between atoms: _316  and  _318
REMARK  128  A    between atoms: _318  and  _319
REMARK  129  A    between atoms: _321  and  _323
REMARK  130  A    between atoms: _323  and  _324
REMARK  131  A    between atoms: _323  and  _326
REMARK  132  A    between atoms: _326  and  _327
REMARK  133  A    between atoms: _330  and  _332
REMARK  134  A    between atoms: _332  and  _333
REMARK  135  A    between atoms: _332  and  _335
REMARK  136  A    between atoms: _335  and  _336
REMARK  137  A    between atoms: _338  and  _340
REMARK  138  A    between atoms: _340  and  _341
REMARK  139  A    between atoms: _340  and  _343
REMARK  140  A    between atoms: _343  and  _344
REMARK  141  A    between atoms: _344  and  _345
REMARK  142  A    between atoms: _347  and  _349
REMARK  143  A    between atoms: _349  and  _350
REMARK  144  A    between atoms: _349  and  _352
REMARK  145  A    between atoms: _355  and  _357
REMARK  146  A    between atoms: _357  and  _358
REMARK  147  A    between atoms: _357  and  _360
REMARK  148  A    between atoms: _360  and  _361
REMARK  149  A    between atoms: _361  and  _362
REMARK  150  A    between atoms: _364  and  _366
REMARK  151  A    between atoms: _366  and  _367
REMARK  152  A    between atoms: _366  and  _369
REMARK  153  A    between atoms: _372  and  _374
REMARK  154  A    between atoms: _374  and  _375
REMARK  155  A    between atoms: _374  and  _377
REMARK  156  A    between atoms: _377  and  _378
REMARK  157  A    between atoms: _378  and  _379
REMARK  158  A    between atoms: _379  and  _380
REMARK  159  A    between atoms: _389  and  _391
REMARK  160  A    between atoms: _391  and  _392
REMARK  161  A    between atoms: _391  and  _394
REMARK  162  A    between atoms: _394  and  _395
REMARK  163  A    between atoms: _401  and  _403
REMARK  164  A    between atoms: _403  and  _404
REMARK  165  A    between atoms: _406  and  _408
REMARK  166  A    between atoms: _408  and  _409
REMARK  167  A    between atoms: _408  and  _411
REMARK  168  A    between atoms: _414  and  _416
REMARK  169  A    between atoms: _416  and  _417
REMARK  170  A    between atoms: _420  and  _422
REMARK  171  A    between atoms: _422  and  _423
REMARK  172  A    between atoms: _426  and  _428
REMARK  173  A    between atoms: _428  and  _429
REMARK  174  A    between atoms: _431  and  _433
REMARK  175  A    between atoms: _433  and  _434
REMARK  176  A    between atoms: _433  and  _436
REMARK  177  A    between atoms: _436  and  _437
REMARK  178  A    between atoms: _439  and  _441
REMARK  179  A    between atoms: _441  and  _442
REMARK  180  A    between atoms: _445  and  _447
REMARK  181  A    between atoms: _447  and  _448
REMARK  182  A    between atoms: _451  and  _453
REMARK  183  A    between atoms: _453  and  _454
REMARK  184  A    between atoms: _453  and  _456
REMARK  185  A    between atoms: _456  and  _457
REMARK  186  A    between atoms: _460  and  _462
REMARK  187  A    between atoms: _462  and  _463
REMARK  188  A    between atoms: _462  and  _465
REMARK  189  A    between atoms: _465  and  _466
REMARK  190  A    between atoms: _469  and  _471
REMARK  191  A    between atoms: _471  and  _472
REMARK  192  A    between atoms: _471  and  _474
REMARK  193  A    between atoms: _474  and  _475
REMARK  194  A    between atoms: _478  and  _480
REMARK  195  A    between atoms: _480  and  _481
REMARK  196  A    between atoms: _480  and  _483
REMARK  197  A    between atoms: _483  and  _484
REMARK  198  A    between atoms: _487  and  _489
REMARK  199  A    between atoms: _489  and  _490
REMARK  200  A    between atoms: _489  and  _492
REMARK  201  A    between atoms: _492  and  _493
REMARK  202  A    between atoms: _496  and  _498
REMARK  203  A    between atoms: _498  and  _499
REMARK  204  A    between atoms: _498  and  _501
REMARK  205  A    between atoms: _501  and  _502
REMARK  206  A    between atoms: _502  and  _503
REMARK  207  A    between atoms: _506  and  _508
REMARK  208  A    between atoms: _508  and  _509
REMARK  209  A    between atoms: _511  and  _513
REMARK  210  A    between atoms: _513  and  _514
REMARK  211  A    between atoms: _513  and  _516
REMARK  212  A    between atoms: _516  and  _517
REMARK  213  A    between atoms: _517  and  _518
REMARK  214  A    between atoms: _518  and  _519
REMARK  215  A    between atoms: _519  and  _520
REMARK  216  A    between atoms: _524  and  _526
REMARK  217  A    between atoms: _526  and  _527
REMARK  218  A    between atoms: _526  and  _529
REMARK  219  A    between atoms: _529  and  _530
REMARK  220  A    between atoms: _530  and  _531
REMARK  221  A    between atoms: _537  and  _538
REMARK  222  A    between atoms: _543  and  _545
REMARK  223  A    between atoms: _545  and  _546
REMARK  224  A    between atoms: _545  and  _548
REMARK  225  A    between atoms: _548  and  _549
REMARK  226  A    between atoms: _549  and  _550
REMARK                            x       y       z     vdW  Elec       q    Type
REMARK                         _______ _______ _______ _____ _____    ______ ____
ROOT
ATOM      1  O   HOH     1      11.867 -11.707  19.336  0.00  0.00    +0.000 OA
ENDROOT
TORSDOF 0
REMARK  Name = ../refined-set-2016/3umo/3umo_pocket.pdb
REMARK  226 active torsions:
REMARK  status: ('A' for Active; 'I' for Inactive)
REMARK    1  A    between atoms: _1  and  _3
REMARK    2  A    between atoms: _3  and  _4
REMARK    3  A    between atoms: _6  and  _8
REMARK    4  A    between atoms: _8  and  _9
REMARK    5  A    between atoms: _8  and  _11
REMARK    6  A    between atoms: _11  and  _12
REMARK    7  A    between atoms: _17  and  _19
REMARK    8  A    between atoms: _19  and  _20
REMARK    9  A    between atoms: _19  and  _22
REMARK   10  A    between atoms: _22  and  _23
REMARK   11  A    between atoms: _23  and  _24
REMARK   12  A    between atoms: _24  and  _25
REMARK   13  A    between atoms: _34  and  _36
REMARK   14  A    between atoms: _36  and  _37
REMARK   15  A    between atoms: _36  and  _39
REMARK   16  A    between atoms: _39  and  _40
REMARK   17  A    between atoms: _42  and  _44
REMARK   18  A    between atoms: _44  and  _45
REMARK   19  A    between atoms: _44  and  _47
REMARK   20  A    between atoms: _47  and  _48
REMARK   21  A    between atoms: _51  and  _53
REMARK   22  A    between atoms: _53  and  _54
REMARK   23  A    between atoms: _53  and  _56
REMARK   24  A    between atoms: _56  and  _57
REMARK   25  A    between atoms: _59  and  _61
REMARK   26  A    between atoms: _61  and  _62
REMARK   27  A    between atoms: _61  and  _64
REMARK   28  A    between atoms: _64  and  _65
REMARK   29  A    between atoms: _65  and  _66
REMARK   30  A    between atoms: _66  and  _67
REMARK   31  A    between atoms: _67  and  _68
REMARK   32  A    between atoms: _73  and  _74
REMARK   33  A    between atoms: _79  and  _81
REMARK   34  A    between atoms: _81  and  _82
REMARK   35  A    between atoms: _81  and  _84
REMARK   36  A    between atoms: _84  and  _85
REMARK   37  A    between atoms: _90  and  _92
REMARK   38  A    between atoms: _92  and  _93
REMARK   39  A    between atoms: _92  and  _95
REMARK   40  A    between atoms: _95  and  _96
REMARK   41  A    between atoms: _96  and  _97
REMARK   42  A    between atoms: _102  and  _104
REMARK   43  A    between atoms: _104  and  _105
REMARK   44  A    between atoms: _104  and  _107
REMARK   45  A    between atoms: _107  and  _108
REMARK   46  A    between atoms: _108  and  _109
REMARK   47  A    between atoms: _109  and  _110
REMARK   48  A    between atoms: _110  and  _111
REMARK   49  A    between atoms: _115  and  _117
REMARK   50  A    between atoms: _117  and  _118
REMARK   51  A    between atoms: _117  and  _120
REMARK   52  A    between atoms: _120  and  _121
REMARK   53  A    between atoms: _121  and  _122
REMARK   54  A    between atoms: _125  and  _127
REMARK   55  A    between atoms: _127  and  _128
REMARK   56  A    between atoms: _127  and  _130
REMARK   57  A    between atoms: _133  and  _135
REMARK   58  A    between atoms: _135  and  _136
REMARK   59  A    between atoms: _135  and  _138
REMARK   60  A    between atoms: _141  and  _143
REMARK   61  A    between atoms: _143  and  _144
REMARK   62  A    between atoms: _143  and  _146
REMARK   63  A    between atoms: _146  and  _147
REMARK   64  A    between atoms: _149  and  _151
REMARK   65  A    between atoms: _151  and  _152
REMARK   66  A    between atoms: _151  and  _154
REMARK   67  A    between atoms: _154  and  _155
REMARK   68  A    between atoms: _158  and  _160
REMARK   69  A    between atoms: _160  and  _161
REMARK   70  A    between atoms: _164  and  _165
REMARK   71  A    between atoms: _170  and  _172
REMARK   72  A    between atoms: _172  and  _173
REMARK   73  A    between atoms: _172  and  _175
REMARK   74  A    between atoms: _175  and  _176
REMARK   75  A    between atoms: _176  and  _177
REMARK   76  A    between atoms: _182  and  _184
REMARK   77  A    between atoms: _184  and  _185
REMARK   78  A    between atoms: _187  and  _189
REMARK   79  A    between atoms: _189  and  _190
REMARK   80  A    between atoms: _193  and  _195
REMARK   81  A    between atoms: _195  and  _196
REMARK   82  A    between atoms: _195  and  _198
REMARK   83  A    between atoms: _198  and  _199
REMARK   84  A    between atoms: _202  and  _204
REMARK   85  A    between atoms: _204  and  _205
REMARK   86  A    between atoms: _204  and  _207
REMARK   87  A    between atoms: _210  and  _212
REMARK   88  A    between atoms: _212  and  _213
REMARK   89  A    between atoms: _212  and  _215
REMARK   90  A    between atoms: _219  and  _220
REMARK   91  A    between atoms: _226  and  _227
REMARK   92  A    between atoms: _233  and  _234
REMARK   93  A    between atoms: _239  and  _241
REMARK   94  A    between atoms: _241  and  _242
REMARK   95  A    between atoms: _241  and  _244
REMARK   96  A    between atoms: _247  and  _249
REMARK   97  A    between atoms: _249  and  _250
REMARK   98  A    between atoms: _249  and  _252
REMARK   99  A    between atoms: _252  and  _253
REMARK  100  A    between atoms: _253  and  _254
REMARK  101  A    between atoms: _254  and  _255
REMARK  102  A    between atoms: _255  and  _256
REMARK  103  A    between atoms: _260  and  _262
REMARK  104  A    between atoms: _262  and  _263
REMARK  105  A    between atoms: _262  and  _265
REMARK  106  A    between atoms: _265  and  _266
REMARK  107  A    between atoms: _268  and  _270
REMARK  108  A    between atoms: _270  and  _271
REMARK  109  A    between atoms: _270  and  _273
REMARK  110  A    between atoms: _273  and  _274
REMARK  111  A    between atoms: _274  and  _275
REMARK  112  A    between atoms: _280  and  _282
REMARK  113  A    between atoms: _282  and  _283
REMARK  114  A    between atoms: _282  and  _285
REMARK  115  A    between atoms: _285  and  _286
REMARK  116  A    between atoms: _288  and  _290
REMARK  117  A    between atoms: _290  and  _291
REMARK  118  A    between atoms: _290  and  _293
REMARK  119  A    between atoms: _293  and  _294
REMARK  120  A    between atoms: _297  and  _299
REMARK  121  A    between atoms: _299  and  _300
REMARK  122  A    between atoms: _299  and  _302
REMARK  123  A    between atoms: _305  and  _307
REMARK  124  A    between atoms: _307  and  _308
REMARK  125  A    between atoms: _310  and  _312
REMARK  126  A    between atoms: _312  and  _313
REMARK  127  A    between atoms: _316  and  _318
REMARK  128  A    between atoms: _318  and  _319
REMARK  129  A    between atoms: _321  and  _323
REMARK  130  A    between atoms: _323  and  _324
REMARK  131  A    between atoms: _323  and  _326
REMARK  132  A    between atoms: _326  and  _327
REMARK  133  A    between atoms: _330  and  _332
REMARK  134  A    between atoms: _332  and  _333
REMARK  135  A    between atoms: _332  and  _335
REMARK  136  A    between atoms: _335  and  _336
REMARK  137  A    between atoms: _338  and  _340
REMARK  138  A    between atoms: _340  and  _341
REMARK  139  A    between atoms: _340  and  _343
REMARK  140  A    between atoms: _343  and  _344
REMARK  141  A    between atoms: _344  and  _345
REMARK  142  A    between atoms: _347  and  _349
REMARK  143  A    between atoms: _349  and  _350
REMARK  144  A    between atoms: _349  and  _352
REMARK  145  A    between atoms: _355  and  _357
REMARK  146  A    between atoms: _357  and  _358
REMARK  147  A    between atoms: _357  and  _360
REMARK  148  A    between atoms: _360  and  _361
REMARK  149  A    between atoms: _361  and  _362
REMARK  150  A    between atoms: _364  and  _366
REMARK  151  A    between atoms: _366  and  _367
REMARK  152  A    between atoms: _366  and  _369
REMARK  153  A    between atoms: _372  and  _374
REMARK  154  A    between atoms: _374  and  _375
REMARK  155  A    between atoms: _374  and  _377
REMARK  156  A    between atoms: _377  and  _378
REMARK  157  A    between atoms: _378  and  _379
REMARK  158  A    between atoms: _379  and  _380
REMARK  159  A    between atoms: _389  and  _391
REMARK  160  A    between atoms: _391  and  _392
REMARK  161  A    between atoms: _391  and  _394
REMARK  162  A    between atoms: _394  and  _395
REMARK  163  A    between atoms: _401  and  _403
REMARK  164  A    between atoms: _403  and  _404
REMARK  165  A    between atoms: _406  and  _408
REMARK  166  A    between atoms: _408  and  _409
REMARK  167  A    between atoms: _408  and  _411
REMARK  168  A    between atoms: _414  and  _416
REMARK  169  A    between atoms: _416  and  _417
REMARK  170  A    between atoms: _420  and  _422
REMARK  171  A    between atoms: _422  and  _423
REMARK  172  A    between atoms: _426  and  _428
REMARK  173  A    between atoms: _428  and  _429
REMARK  174  A    between atoms: _431  and  _433
REMARK  175  A    between atoms: _433  and  _434
REMARK  176  A    between atoms: _433  and  _436
REMARK  177  A    between atoms: _436  and  _437
REMARK  178  A    between atoms: _439  and  _441
REMARK  179  A    between atoms: _441  and  _442
REMARK  180  A    between atoms: _445  and  _447
REMARK  181  A    between atoms: _447  and  _448
REMARK  182  A    between atoms: _451  and  _453
REMARK  183  A    between atoms: _453  and  _454
REMARK  184  A    between atoms: _453  and  _456
REMARK  185  A    between atoms: _456  and  _457
REMARK  186  A    between atoms: _460  and  _462
REMARK  187  A    between atoms: _462  and  _463
REMARK  188  A    between atoms: _462  and  _465
REMARK  189  A    between atoms: _465  and  _466
REMARK  190  A    between atoms: _469  and  _471
REMARK  191  A    between atoms: _471  and  _472
REMARK  192  A    between atoms: _471  and  _474
REMARK  193  A    between atoms: _474  and  _475
REMARK  194  A    between atoms: _478  and  _480
REMARK  195  A    between atoms: _480  and  _481
REMARK  196  A    between atoms: _480  and  _483
REMARK  197  A    between atoms: _483  and  _484
REMARK  198  A    between atoms: _487  and  _489
REMARK  199  A    between atoms: _489  and  _490
REMARK  200  A    between atoms: _489  and  _492
REMARK  201  A    between atoms: _492  and  _493
REMARK  202  A    between atoms: _496  and  _498
REMARK  203  A    between atoms: _498  and  _499
REMARK  204  A    between atoms: _498  and  _501
REMARK  205  A    between atoms: _501  and  _502
REMARK  206  A    between atoms: _502  and  _503
REMARK  207  A    between atoms: _506  and  _508
REMARK  208  A    between atoms: _508  and  _509
REMARK  209  A    between atoms: _511  and  _513
REMARK  210  A    between atoms: _513  and  _514
REMARK  211  A    between atoms: _513  and  _516
REMARK  212  A    between atoms: _516  and  _517
REMARK  213  A    between atoms: _517  and  _518
REMARK  214  A    between atoms: _518  and  _519
REMARK  215  A    between atoms: _519  and  _520
REMARK  216  A    between atoms: _524  and  _526
REMARK  217  A    between atoms: _526  and  _527
REMARK  218  A    between atoms: _526  and  _529
REMARK  219  A    between atoms: _529  and  _530
REMARK  220  A    between atoms: _530  and  _531
REMARK  221  A    between atoms: _537  and  _538
REMARK  222  A    between atoms: _543  and  _545
REMARK  223  A    between atoms: _545  and  _546
REMARK  224  A    between atoms: _545  and  _548
REMARK  225  A    between atoms: _548  and  _549
REMARK  226  A    between atoms: _549  and  _550
REMARK                            x       y       z     vdW  Elec       q    Type
REMARK                         _______ _______ _______ _____ _____    ______ ____
ROOT
ATOM      1  O   HOH     1      -0.748 -23.965   4.001  0.00  0.00    +0.000 OA
ENDROOT
TORSDOF 0
REMARK  Name = ../refined-set-2016/3umo/3umo_pocket.pdb
REMARK  226 active torsions:
REMARK  status: ('A' for Active; 'I' for Inactive)
REMARK    1  A    between atoms: _1  and  _3
REMARK    2  A    between atoms: _3  and  _4
REMARK    3  A    between atoms: _6  and  _8
REMARK    4  A    between atoms: _8  and  _9
REMARK    5  A    between atoms: _8  and  _11
REMARK    6  A    between atoms: _11  and  _12
REMARK    7  A    between atoms: _17  and  _19
REMARK    8  A    between atoms: _19  and  _20
REMARK    9  A    between atoms: _19  and  _22
REMARK   10  A    between atoms: _22  and  _23
REMARK   11  A    between atoms: _23  and  _24
REMARK   12  A    between atoms: _24  and  _25
REMARK   13  A    between atoms: _34  and  _36
REMARK   14  A    between atoms: _36  and  _37
REMARK   15  A    between atoms: _36  and  _39
REMARK   16  A    between atoms: _39  and  _40
REMARK   17  A    between atoms: _42  and  _44
REMARK   18  A    between atoms: _44  and  _45
REMARK   19  A    between atoms: _44  and  _47
REMARK   20  A    between atoms: _47  and  _48
REMARK   21  A    between atoms: _51  and  _53
REMARK   22  A    between atoms: _53  and  _54
REMARK   23  A    between atoms: _53  and  _56
REMARK   24  A    between atoms: _56  and  _57
REMARK   25  A    between atoms: _59  and  _61
REMARK   26  A    between atoms: _61  and  _62
REMARK   27  A    between atoms: _61  and  _64
REMARK   28  A    between atoms: _64  and  _65
REMARK   29  A    between atoms: _65  and  _66
REMARK   30  A    between atoms: _66  and  _67
REMARK   31  A    between atoms: _67  and  _68
REMARK   32  A    between atoms: _73  and  _74
REMARK   33  A    between atoms: _79  and  _81
REMARK   34  A    between atoms: _81  and  _82
REMARK   35  A    between atoms: _81  and  _84
REMARK   36  A    between atoms: _84  and  _85
REMARK   37  A    between atoms: _90  and  _92
REMARK   38  A    between atoms: _92  and  _93
REMARK   39  A    between atoms: _92  and  _95
REMARK   40  A    between atoms: _95  and  _96
REMARK   41  A    between atoms: _96  and  _97
REMARK   42  A    between atoms: _102  and  _104
REMARK   43  A    between atoms: _104  and  _105
REMARK   44  A    between atoms: _104  and  _107
REMARK   45  A    between atoms: _107  and  _108
REMARK   46  A    between atoms: _108  and  _109
REMARK   47  A    between atoms: _109  and  _110
REMARK   48  A    between atoms: _110  and  _111
REMARK   49  A    between atoms: _115  and  _117
REMARK   50  A    between atoms: _117  and  _118
REMARK   51  A    between atoms: _117  and  _120
REMARK   52  A    between atoms: _120  and  _121
REMARK   53  A    between atoms: _121  and  _122
REMARK   54  A    between atoms: _125  and  _127
REMARK   55  A    between atoms: _127  and  _128
REMARK   56  A    between atoms: _127  and  _130
REMARK   57  A    between atoms: _133  and  _135
REMARK   58  A    between atoms: _135  and  _136
REMARK   59  A    between atoms: _135  and  _138
REMARK   60  A    between atoms: _141  and  _143
REMARK   61  A    between atoms: _143  and  _144
REMARK   62  A    between atoms: _143  and  _146
REMARK   63  A    between atoms: _146  and  _147
REMARK   64  A    between atoms: _149  and  _151
REMARK   65  A    between atoms: _151  and  _152
REMARK   66  A    between atoms: _151  and  _154
REMARK   67  A    between atoms: _154  and  _155
REMARK   68  A    between atoms: _158  and  _160
REMARK   69  A    between atoms: _160  and  _161
REMARK   70  A    between atoms: _164  and  _165
REMARK   71  A    between atoms: _170  and  _172
REMARK   72  A    between atoms: _172  and  _173
REMARK   73  A    between atoms: _172  and  _175
REMARK   74  A    between atoms: _175  and  _176
REMARK   75  A    between atoms: _176  and  _177
REMARK   76  A    between atoms: _182  and  _184
REMARK   77  A    between atoms: _184  and  _185
REMARK   78  A    between atoms: _187  and  _189
REMARK   79  A    between atoms: _189  and  _190
REMARK   80  A    between atoms: _193  and  _195
REMARK   81  A    between atoms: _195  and  _196
REMARK   82  A    between atoms: _195  and  _198
REMARK   83  A    between atoms: _198  and  _199
REMARK   84  A    between atoms: _202  and  _204
REMARK   85  A    between atoms: _204  and  _205
REMARK   86  A    between atoms: _204  and  _207
REMARK   87  A    between atoms: _210  and  _212
REMARK   88  A    between atoms: _212  and  _213
REMARK   89  A    between atoms: _212  and  _215
REMARK   90  A    between atoms: _219  and  _220
REMARK   91  A    between atoms: _226  and  _227
REMARK   92  A    between atoms: _233  and  _234
REMARK   93  A    between atoms: _239  and  _241
REMARK   94  A    between atoms: _241  and  _242
REMARK   95  A    between atoms: _241  and  _244
REMARK   96  A    between atoms: _247  and  _249
REMARK   97  A    between atoms: _249  and  _250
REMARK   98  A    between atoms: _249  and  _252
REMARK   99  A    between atoms: _252  and  _253
REMARK  100  A    between atoms: _253  and  _254
REMARK  101  A    between atoms: _254  and  _255
REMARK  102  A    between atoms: _255  and  _256
REMARK  103  A    between atoms: _260  and  _262
REMARK  104  A    between atoms: _262  and  _263
REMARK  105  A    between atoms: _262  and  _265
REMARK  106  A    between atoms: _265  and  _266
REMARK  107  A    between atoms: _268  and  _270
REMARK  108  A    between atoms: _270  and  _271
REMARK  109  A    between atoms: _270  and  _273
REMARK  110  A    between atoms: _273  and  _274
REMARK  111  A    between atoms: _274  and  _275
REMARK  112  A    between atoms: _280  and  _282
REMARK  113  A    between atoms: _282  and  _283
REMARK  114  A    between atoms: _282  and  _285
REMARK  115  A    between atoms: _285  and  _286
REMARK  116  A    between atoms: _288  and  _290
REMARK  117  A    between atoms: _290  and  _291
REMARK  118  A    between atoms: _290  and  _293
REMARK  119  A    between atoms: _293  and  _294
REMARK  120  A    between atoms: _297  and  _299
REMARK  121  A    between atoms: _299  and  _300
REMARK  122  A    between atoms: _299  and  _302
REMARK  123  A    between atoms: _305  and  _307
REMARK  124  A    between atoms: _307  and  _308
REMARK  125  A    between atoms: _310  and  _312
REMARK  126  A    between atoms: _312  and  _313
REMARK  127  A    between atoms: _316  and  _318
REMARK  128  A    between atoms: _318  and  _319
REMARK  129  A    between atoms: _321  and  _323
REMARK  130  A    between atoms: _323  and  _324
REMARK  131  A    between atoms: _323  and  _326
REMARK  132  A    between atoms: _326  and  _327
REMARK  133  A    between atoms: _330  and  _332
REMARK  134  A    between atoms: _332  and  _333
REMARK  135  A    between atoms: _332  and  _335
REMARK  136  A    between atoms: _335  and  _336
REMARK  137  A    between atoms: _338  and  _340
REMARK  138  A    between atoms: _340  and  _341
REMARK  139  A    between atoms: _340  and  _343
REMARK  140  A    between atoms: _343  and  _344
REMARK  141  A    between atoms: _344  and  _345
REMARK  142  A    between atoms: _347  and  _349
REMARK  143  A    between atoms: _349  and  _350
REMARK  144  A    between atoms: _349  and  _352
REMARK  145  A    between atoms: _355  and  _357
REMARK  146  A    between atoms: _357  and  _358
REMARK  147  A    between atoms: _357  and  _360
REMARK  148  A    between atoms: _360  and  _361
REMARK  149  A    between atoms: _361  and  _362
REMARK  150  A    between atoms: _364  and  _366
REMARK  151  A    between atoms: _366  and  _367
REMARK  152  A    between atoms: _366  and  _369
REMARK  153  A    between atoms: _372  and  _374
REMARK  154  A    between atoms: _374  and  _375
REMARK  155  A    between atoms: _374  and  _377
REMARK  156  A    between atoms: _377  and  _378
REMARK  157  A    between atoms: _378  and  _379
REMARK  158  A    between atoms: _379  and  _380
REMARK  159  A    between atoms: _389  and  _391
REMARK  160  A    between atoms: _391  and  _392
REMARK  161  A    between atoms: _391  and  _394
REMARK  162  A    between atoms: _394  and  _395
REMARK  163  A    between atoms: _401  and  _403
REMARK  164  A    between atoms: _403  and  _404
REMARK  165  A    between atoms: _406  and  _408
REMARK  166  A    between atoms: _408  and  _409
REMARK  167  A    between atoms: _408  and  _411
REMARK  168  A    between atoms: _414  and  _416
REMARK  169  A    between atoms: _416  and  _417
REMARK  170  A    between atoms: _420  and  _422
REMARK  171  A    between atoms: _422  and  _423
REMARK  172  A    between atoms: _426  and  _428
REMARK  173  A    between atoms: _428  and  _429
REMARK  174  A    between atoms: _431  and  _433
REMARK  175  A    between atoms: _433  and  _434
REMARK  176  A    between atoms: _433  and  _436
REMARK  177  A    between atoms: _436  and  _437
REMARK  178  A    between atoms: _439  and  _441
REMARK  179  A    between atoms: _441  and  _442
REMARK  180  A    between atoms: _445  and  _447
REMARK  181  A    between atoms: _447  and  _448
REMARK  182  A    between atoms: _451  and  _453
REMARK  183  A    between atoms: _453  and  _454
REMARK  184  A    between atoms: _453  and  _456
REMARK  185  A    between atoms: _456  and  _457
REMARK  186  A    between atoms: _460  and  _462
REMARK  187  A    between atoms: _462  and  _463
REMARK  188  A    between atoms: _462  and  _465
REMARK  189  A    between atoms: _465  and  _466
REMARK  190  A    between atoms: _469  and  _471
REMARK  191  A    between atoms: _471  and  _472
REMARK  192  A    between atoms: _471  and  _474
REMARK  193  A    between atoms: _474  and  _475
REMARK  194  A    between atoms: _478  and  _480
REMARK  195  A    between atoms: _480  and  _481
REMARK  196  A    between atoms: _480  and  _483
REMARK  197  A    between atoms: _483  and  _484
REMARK  198  A    between atoms: _487  and  _489
REMARK  199  A    between atoms: _489  and  _490
REMARK  200  A    between atoms: _489  and  _492
REMARK  201  A    between atoms: _492  and  _493
REMARK  202  A    between atoms: _496  and  _498
REMARK  203  A    between atoms: _498  and  _499
REMARK  204  A    between atoms: _498  and  _501
REMARK  205  A    between atoms: _501  and  _502
REMARK  206  A    between atoms: _502  and  _503
REMARK  207  A    between atoms: _506  and  _508
REMARK  208  A    between atoms: _508  and  _509
REMARK  209  A    between atoms: _511  and  _513
REMARK  210  A    between atoms: _513  and  _514
REMARK  211  A    between atoms: _513  and  _516
REMARK  212  A    between atoms: _516  and  _517
REMARK  213  A    between atoms: _517  and  _518
REMARK  214  A    between atoms: _518  and  _519
REMARK  215  A    between atoms: _519  and  _520
REMARK  216  A    between atoms: _524  and  _526
REMARK  217  A    between atoms: _526  and  _527
REMARK  218  A    between atoms: _526  and  _529
REMARK  219  A    between atoms: _529  and  _530
REMARK  220  A    between atoms: _530  and  _531
REMARK  221  A    between atoms: _537  and  _538
REMARK  222  A    between atoms: _543  and  _545
REMARK  223  A    between atoms: _545  and  _546
REMARK  224  A    between atoms: _545  and  _548
REMARK  225  A    between atoms: _548  and  _549
REMARK  226  A    between atoms: _549  and  _550
REMARK                            x       y       z     vdW  Elec       q    Type
REMARK                         _______ _______ _______ _____ _____    ______ ____
ROOT
ATOM      1  O   HOH     1       9.595 -22.003   4.815  0.00  0.00    +0.000 OA
ENDROOT
TORSDOF 0
REMARK  Name = ../refined-set-2016/3umo/3umo_pocket.pdb
REMARK  226 active torsions:
REMARK  status: ('A' for Active; 'I' for Inactive)
REMARK    1  A    between atoms: _1  and  _3
REMARK    2  A    between atoms: _3  and  _4
REMARK    3  A    between atoms: _6  and  _8
REMARK    4  A    between atoms: _8  and  _9
REMARK    5  A    between atoms: _8  and  _11
REMARK    6  A    between atoms: _11  and  _12
REMARK    7  A    between atoms: _17  and  _19
REMARK    8  A    between atoms: _19  and  _20
REMARK    9  A    between atoms: _19  and  _22
REMARK   10  A    between atoms: _22  and  _23
REMARK   11  A    between atoms: _23  and  _24
REMARK   12  A    between atoms: _24  and  _25
REMARK   13  A    between atoms: _34  and  _36
REMARK   14  A    between atoms: _36  and  _37
REMARK   15  A    between atoms: _36  and  _39
REMARK   16  A    between atoms: _39  and  _40
REMARK   17  A    between atoms: _42  and  _44
REMARK   18  A    between atoms: _44  and  _45
REMARK   19  A    between atoms: _44  and  _47
REMARK   20  A    between atoms: _47  and  _48
REMARK   21  A    between atoms: _51  and  _53
REMARK   22  A    between atoms: _53  and  _54
REMARK   23  A    between atoms: _53  and  _56
REMARK   24  A    between atoms: _56  and  _57
REMARK   25  A    between atoms: _59  and  _61
REMARK   26  A    between atoms: _61  and  _62
REMARK   27  A    between atoms: _61  and  _64
REMARK   28  A    between atoms: _64  and  _65
REMARK   29  A    between atoms: _65  and  _66
REMARK   30  A    between atoms: _66  and  _67
REMARK   31  A    between atoms: _67  and  _68
REMARK   32  A    between atoms: _73  and  _74
REMARK   33  A    between atoms: _79  and  _81
REMARK   34  A    between atoms: _81  and  _82
REMARK   35  A    between atoms: _81  and  _84
REMARK   36  A    between atoms: _84  and  _85
REMARK   37  A    between atoms: _90  and  _92
REMARK   38  A    between atoms: _92  and  _93
REMARK   39  A    between atoms: _92  and  _95
REMARK   40  A    between atoms: _95  and  _96
REMARK   41  A    between atoms: _96  and  _97
REMARK   42  A    between atoms: _102  and  _104
REMARK   43  A    between atoms: _104  and  _105
REMARK   44  A    between atoms: _104  and  _107
REMARK   45  A    between atoms: _107  and  _108
REMARK   46  A    between atoms: _108  and  _109
REMARK   47  A    between atoms: _109  and  _110
REMARK   48  A    between atoms: _110  and  _111
REMARK   49  A    between atoms: _115  and  _117
REMARK   50  A    between atoms: _117  and  _118
REMARK   51  A    between atoms: _117  and  _120
REMARK   52  A    between atoms: _120  and  _121
REMARK   53  A    between atoms: _121  and  _122
REMARK   54  A    between atoms: _125  and  _127
REMARK   55  A    between atoms: _127  and  _128
REMARK   56  A    between atoms: _127  and  _130
REMARK   57  A    between atoms: _133  and  _135
REMARK   58  A    between atoms: _135  and  _136
REMARK   59  A    between atoms: _135  and  _138
REMARK   60  A    between atoms: _141  and  _143
REMARK   61  A    between atoms: _143  and  _144
REMARK   62  A    between atoms: _143  and  _146
REMARK   63  A    between atoms: _146  and  _147
REMARK   64  A    between atoms: _149  and  _151
REMARK   65  A    between atoms: _151  and  _152
REMARK   66  A    between atoms: _151  and  _154
REMARK   67  A    between atoms: _154  and  _155
REMARK   68  A    between atoms: _158  and  _160
REMARK   69  A    between atoms: _160  and  _161
REMARK   70  A    between atoms: _164  and  _165
REMARK   71  A    between atoms: _170  and  _172
REMARK   72  A    between atoms: _172  and  _173
REMARK   73  A    between atoms: _172  and  _175
REMARK   74  A    between atoms: _175  and  _176
REMARK   75  A    between atoms: _176  and  _177
REMARK   76  A    between atoms: _182  and  _184
REMARK   77  A    between atoms: _184  and  _185
REMARK   78  A    between atoms: _187  and  _189
REMARK   79  A    between atoms: _189  and  _190
REMARK   80  A    between atoms: _193  and  _195
REMARK   81  A    between atoms: _195  and  _196
REMARK   82  A    between atoms: _195  and  _198
REMARK   83  A    between atoms: _198  and  _199
REMARK   84  A    between atoms: _202  and  _204
REMARK   85  A    between atoms: _204  and  _205
REMARK   86  A    between atoms: _204  and  _207
REMARK   87  A    between atoms: _210  and  _212
REMARK   88  A    between atoms: _212  and  _213
REMARK   89  A    between atoms: _212  and  _215
REMARK   90  A    between atoms: _219  and  _220
REMARK   91  A    between atoms: _226  and  _227
REMARK   92  A    between atoms: _233  and  _234
REMARK   93  A    between atoms: _239  and  _241
REMARK   94  A    between atoms: _241  and  _242
REMARK   95  A    between atoms: _241  and  _244
REMARK   96  A    between atoms: _247  and  _249
REMARK   97  A    between atoms: _249  and  _250
REMARK   98  A    between atoms: _249  and  _252
REMARK   99  A    between atoms: _252  and  _253
REMARK  100  A    between atoms: _253  and  _254
REMARK  101  A    between atoms: _254  and  _255
REMARK  102  A    between atoms: _255  and  _256
REMARK  103  A    between atoms: _260  and  _262
REMARK  104  A    between atoms: _262  and  _263
REMARK  105  A    between atoms: _262  and  _265
REMARK  106  A    between atoms: _265  and  _266
REMARK  107  A    between atoms: _268  and  _270
REMARK  108  A    between atoms: _270  and  _271
REMARK  109  A    between atoms: _270  and  _273
REMARK  110  A    between atoms: _273  and  _274
REMARK  111  A    between atoms: _274  and  _275
REMARK  112  A    between atoms: _280  and  _282
REMARK  113  A    between atoms: _282  and  _283
REMARK  114  A    between atoms: _282  and  _285
REMARK  115  A    between atoms: _285  and  _286
REMARK  116  A    between atoms: _288  and  _290
REMARK  117  A    between atoms: _290  and  _291
REMARK  118  A    between atoms: _290  and  _293
REMARK  119  A    between atoms: _293  and  _294
REMARK  120  A    between atoms: _297  and  _299
REMARK  121  A    between atoms: _299  and  _300
REMARK  122  A    between atoms: _299  and  _302
REMARK  123  A    between atoms: _305  and  _307
REMARK  124  A    between atoms: _307  and  _308
REMARK  125  A    between atoms: _310  and  _312
REMARK  126  A    between atoms: _312  and  _313
REMARK  127  A    between atoms: _316  and  _318
REMARK  128  A    between atoms: _318  and  _319
REMARK  129  A    between atoms: _321  and  _323
REMARK  130  A    between atoms: _323  and  _324
REMARK  131  A    between atoms: _323  and  _326
REMARK  132  A    between atoms: _326  and  _327
REMARK  133  A    between atoms: _330  and  _332
REMARK  134  A    between atoms: _332  and  _333
REMARK  135  A    between atoms: _332  and  _335
REMARK  136  A    between atoms: _335  and  _336
REMARK  137  A    between atoms: _338  and  _340
REMARK  138  A    between atoms: _340  and  _341
REMARK  139  A    between atoms: _340  and  _343
REMARK  140  A    between atoms: _343  and  _344
REMARK  141  A    between atoms: _344  and  _345
REMARK  142  A    between atoms: _347  and  _349
REMARK  143  A    between atoms: _349  and  _350
REMARK  144  A    between atoms: _349  and  _352
REMARK  145  A    between atoms: _355  and  _357
REMARK  146  A    between atoms: _357  and  _358
REMARK  147  A    between atoms: _357  and  _360
REMARK  148  A    between atoms: _360  and  _361
REMARK  149  A    between atoms: _361  and  _362
REMARK  150  A    between atoms: _364  and  _366
REMARK  151  A    between atoms: _366  and  _367
REMARK  152  A    between atoms: _366  and  _369
REMARK  153  A    between atoms: _372  and  _374
REMARK  154  A    between atoms: _374  and  _375
REMARK  155  A    between atoms: _374  and  _377
REMARK  156  A    between atoms: _377  and  _378
REMARK  157  A    between atoms: _378  and  _379
REMARK  158  A    between atoms: _379  and  _380
REMARK  159  A    between atoms: _389  and  _391
REMARK  160  A    between atoms: _391  and  _392
REMARK  161  A    between atoms: _391  and  _394
REMARK  162  A    between atoms: _394  and  _395
REMARK  163  A    between atoms: _401  and  _403
REMARK  164  A    between atoms: _403  and  _404
REMARK  165  A    between atoms: _406  and  _408
REMARK  166  A    between atoms: _408  and  _409
REMARK  167  A    between atoms: _408  and  _411
REMARK  168  A    between atoms: _414  and  _416
REMARK  169  A    between atoms: _416  and  _417
REMARK  170  A    between atoms: _420  and  _422
REMARK  171  A    between atoms: _422  and  _423
REMARK  172  A    between atoms: _426  and  _428
REMARK  173  A    between atoms: _428  and  _429
REMARK  174  A    between atoms: _431  and  _433
REMARK  175  A    between atoms: _433  and  _434
REMARK  176  A    between atoms: _433  and  _436
REMARK  177  A    between atoms: _436  and  _437
REMARK  178  A    between atoms: _439  and  _441
REMARK  179  A    between atoms: _441  and  _442
REMARK  180  A    between atoms: _445  and  _447
REMARK  181  A    between atoms: _447  and  _448
REMARK  182  A    between atoms: _451  and  _453
REMARK  183  A    between atoms: _453  and  _454
REMARK  184  A    between atoms: _453  and  _456
REMARK  185  A    between atoms: _456  and  _457
REMARK  186  A    between atoms: _460  and  _462
REMARK  187  A    between atoms: _462  and  _463
REMARK  188  A    between atoms: _462  and  _465
REMARK  189  A    between atoms: _465  and  _466
REMARK  190  A    between atoms: _469  and  _471
REMARK  191  A    between atoms: _471  and  _472
REMARK  192  A    between atoms: _471  and  _474
REMARK  193  A    between atoms: _474  and  _475
REMARK  194  A    between atoms: _478  and  _480
REMARK  195  A    between atoms: _480  and  _481
REMARK  196  A    between atoms: _480  and  _483
REMARK  197  A    between atoms: _483  and  _484
REMARK  198  A    between atoms: _487  and  _489
REMARK  199  A    between atoms: _489  and  _490
REMARK  200  A    between atoms: _489  and  _492
REMARK  201  A    between atoms: _492  and  _493
REMARK  202  A    between atoms: _496  and  _498
REMARK  203  A    between atoms: _498  and  _499
REMARK  204  A    between atoms: _498  and  _501
REMARK  205  A    between atoms: _501  and  _502
REMARK  206  A    between atoms: _502  and  _503
REMARK  207  A    between atoms: _506  and  _508
REMARK  208  A    between atoms: _508  and  _509
REMARK  209  A    between atoms: _511  and  _513
REMARK  210  A    between atoms: _513  and  _514
REMARK  211  A    between atoms: _513  and  _516
REMARK  212  A    between atoms: _516  and  _517
REMARK  213  A    between atoms: _517  and  _518
REMARK  214  A    between atoms: _518  and  _519
REMARK  215  A    between atoms: _519  and  _520
REMARK  216  A    between atoms: _524  and  _526
REMARK  217  A    between atoms: _526  and  _527
REMARK  218  A    between atoms: _526  and  _529
REMARK  219  A    between atoms: _529  and  _530
REMARK  220  A    between atoms: _530  and  _531
REMARK  221  A    between atoms: _537  and  _538
REMARK  222  A    between atoms: _543  and  _545
REMARK  223  A    between atoms: _545  and  _546
REMARK  224  A    between atoms: _545  and  _548
REMARK  225  A    between atoms: _548  and  _549
REMARK  226  A    between atoms: _549  and  _550
REMARK                            x       y       z     vdW  Elec       q    Type
REMARK                         _______ _______ _______ _____ _____    ______ ____
ROOT
ATOM      1  O   HOH     1       1.419 -22.903   1.888  0.00  0.00    +0.000 OA
ENDROOT
TORSDOF 0
REMARK  Name = ../refined-set-2016/3umo/3umo_pocket.pdb
REMARK  226 active torsions:
REMARK  status: ('A' for Active; 'I' for Inactive)
REMARK    1  A    between atoms: _1  and  _3
REMARK    2  A    between atoms: _3  and  _4
REMARK    3  A    between atoms: _6  and  _8
REMARK    4  A    between atoms: _8  and  _9
REMARK    5  A    between atoms: _8  and  _11
REMARK    6  A    between atoms: _11  and  _12
REMARK    7  A    between atoms: _17  and  _19
REMARK    8  A    between atoms: _19  and  _20
REMARK    9  A    between atoms: _19  and  _22
REMARK   10  A    between atoms: _22  and  _23
REMARK   11  A    between atoms: _23  and  _24
REMARK   12  A    between atoms: _24  and  _25
REMARK   13  A    between atoms: _34  and  _36
REMARK   14  A    between atoms: _36  and  _37
REMARK   15  A    between atoms: _36  and  _39
REMARK   16  A    between atoms: _39  and  _40
REMARK   17  A    between atoms: _42  and  _44
REMARK   18  A    between atoms: _44  and  _45
REMARK   19  A    between atoms: _44  and  _47
REMARK   20  A    between atoms: _47  and  _48
REMARK   21  A    between atoms: _51  and  _53
REMARK   22  A    between atoms: _53  and  _54
REMARK   23  A    between atoms: _53  and  _56
REMARK   24  A    between atoms: _56  and  _57
REMARK   25  A    between atoms: _59  and  _61
REMARK   26  A    between atoms: _61  and  _62
REMARK   27  A    between atoms: _61  and  _64
REMARK   28  A    between atoms: _64  and  _65
REMARK   29  A    between atoms: _65  and  _66
REMARK   30  A    between atoms: _66  and  _67
REMARK   31  A    between atoms: _67  and  _68
REMARK   32  A    between atoms: _73  and  _74
REMARK   33  A    between atoms: _79  and  _81
REMARK   34  A    between atoms: _81  and  _82
REMARK   35  A    between atoms: _81  and  _84
REMARK   36  A    between atoms: _84  and  _85
REMARK   37  A    between atoms: _90  and  _92
REMARK   38  A    between atoms: _92  and  _93
REMARK   39  A    between atoms: _92  and  _95
REMARK   40  A    between atoms: _95  and  _96
REMARK   41  A    between atoms: _96  and  _97
REMARK   42  A    between atoms: _102  and  _104
REMARK   43  A    between atoms: _104  and  _105
REMARK   44  A    between atoms: _104  and  _107
REMARK   45  A    between atoms: _107  and  _108
REMARK   46  A    between atoms: _108  and  _109
REMARK   47  A    between atoms: _109  and  _110
REMARK   48  A    between atoms: _110  and  _111
REMARK   49  A    between atoms: _115  and  _117
REMARK   50  A    between atoms: _117  and  _118
REMARK   51  A    between atoms: _117  and  _120
REMARK   52  A    between atoms: _120  and  _121
REMARK   53  A    between atoms: _121  and  _122
REMARK   54  A    between atoms: _125  and  _127
REMARK   55  A    between atoms: _127  and  _128
REMARK   56  A    between atoms: _127  and  _130
REMARK   57  A    between atoms: _133  and  _135
REMARK   58  A    between atoms: _135  and  _136
REMARK   59  A    between atoms: _135  and  _138
REMARK   60  A    between atoms: _141  and  _143
REMARK   61  A    between atoms: _143  and  _144
REMARK   62  A    between atoms: _143  and  _146
REMARK   63  A    between atoms: _146  and  _147
REMARK   64  A    between atoms: _149  and  _151
REMARK   65  A    between atoms: _151  and  _152
REMARK   66  A    between atoms: _151  and  _154
REMARK   67  A    between atoms: _154  and  _155
REMARK   68  A    between atoms: _158  and  _160
REMARK   69  A    between atoms: _160  and  _161
REMARK   70  A    between atoms: _164  and  _165
REMARK   71  A    between atoms: _170  and  _172
REMARK   72  A    between atoms: _172  and  _173
REMARK   73  A    between atoms: _172  and  _175
REMARK   74  A    between atoms: _175  and  _176
REMARK   75  A    between atoms: _176  and  _177
REMARK   76  A    between atoms: _182  and  _184
REMARK   77  A    between atoms: _184  and  _185
REMARK   78  A    between atoms: _187  and  _189
REMARK   79  A    between atoms: _189  and  _190
REMARK   80  A    between atoms: _193  and  _195
REMARK   81  A    between atoms: _195  and  _196
REMARK   82  A    between atoms: _195  and  _198
REMARK   83  A    between atoms: _198  and  _199
REMARK   84  A    between atoms: _202  and  _204
REMARK   85  A    between atoms: _204  and  _205
REMARK   86  A    between atoms: _204  and  _207
REMARK   87  A    between atoms: _210  and  _212
REMARK   88  A    between atoms: _212  and  _213
REMARK   89  A    between atoms: _212  and  _215
REMARK   90  A    between atoms: _219  and  _220
REMARK   91  A    between atoms: _226  and  _227
REMARK   92  A    between atoms: _233  and  _234
REMARK   93  A    between atoms: _239  and  _241
REMARK   94  A    between atoms: _241  and  _242
REMARK   95  A    between atoms: _241  and  _244
REMARK   96  A    between atoms: _247  and  _249
REMARK   97  A    between atoms: _249  and  _250
REMARK   98  A    between atoms: _249  and  _252
REMARK   99  A    between atoms: _252  and  _253
REMARK  100  A    between atoms: _253  and  _254
REMARK  101  A    between atoms: _254  and  _255
REMARK  102  A    between atoms: _255  and  _256
REMARK  103  A    between atoms: _260  and  _262
REMARK  104  A    between atoms: _262  and  _263
REMARK  105  A    between atoms: _262  and  _265
REMARK  106  A    between atoms: _265  and  _266
REMARK  107  A    between atoms: _268  and  _270
REMARK  108  A    between atoms: _270  and  _271
REMARK  109  A    between atoms: _270  and  _273
REMARK  110  A    between atoms: _273  and  _274
REMARK  111  A    between atoms: _274  and  _275
REMARK  112  A    between atoms: _280  and  _282
REMARK  113  A    between atoms: _282  and  _283
REMARK  114  A    between atoms: _282  and  _285
REMARK  115  A    between atoms: _285  and  _286
REMARK  116  A    between atoms: _288  and  _290
REMARK  117  A    between atoms: _290  and  _291
REMARK  118  A    between atoms: _290  and  _293
REMARK  119  A    between atoms: _293  and  _294
REMARK  120  A    between atoms: _297  and  _299
REMARK  121  A    between atoms: _299  and  _300
REMARK  122  A    between atoms: _299  and  _302
REMARK  123  A    between atoms: _305  and  _307
REMARK  124  A    between atoms: _307  and  _308
REMARK  125  A    between atoms: _310  and  _312
REMARK  126  A    between atoms: _312  and  _313
REMARK  127  A    between atoms: _316  and  _318
REMARK  128  A    between atoms: _318  and  _319
REMARK  129  A    between atoms: _321  and  _323
REMARK  130  A    between atoms: _323  and  _324
REMARK  131  A    between atoms: _323  and  _326
REMARK  132  A    between atoms: _326  and  _327
REMARK  133  A    between atoms: _330  and  _332
REMARK  134  A    between atoms: _332  and  _333
REMARK  135  A    between atoms: _332  and  _335
REMARK  136  A    between atoms: _335  and  _336
REMARK  137  A    between atoms: _338  and  _340
REMARK  138  A    between atoms: _340  and  _341
REMARK  139  A    between atoms: _340  and  _343
REMARK  140  A    between atoms: _343  and  _344
REMARK  141  A    between atoms: _344  and  _345
REMARK  142  A    between atoms: _347  and  _349
REMARK  143  A    between atoms: _349  and  _350
REMARK  144  A    between atoms: _349  and  _352
REMARK  145  A    between atoms: _355  and  _357
REMARK  146  A    between atoms: _357  and  _358
REMARK  147  A    between atoms: _357  and  _360
REMARK  148  A    between atoms: _360  and  _361
REMARK  149  A    between atoms: _361  and  _362
REMARK  150  A    between atoms: _364  and  _366
REMARK  151  A    between atoms: _366  and  _367
REMARK  152  A    between atoms: _366  and  _369
REMARK  153  A    between atoms: _372  and  _374
REMARK  154  A    between atoms: _374  and  _375
REMARK  155  A    between atoms: _374  and  _377
REMARK  156  A    between atoms: _377  and  _378
REMARK  157  A    between atoms: _378  and  _379
REMARK  158  A    between atoms: _379  and  _380
REMARK  159  A    between atoms: _389  and  _391
REMARK  160  A    between atoms: _391  and  _392
REMARK  161  A    between atoms: _391  and  _394
REMARK  162  A    between atoms: _394  and  _395
REMARK  163  A    between atoms: _401  and  _403
REMARK  164  A    between atoms: _403  and  _404
REMARK  165  A    between atoms: _406  and  _408
REMARK  166  A    between atoms: _408  and  _409
REMARK  167  A    between atoms: _408  and  _411
REMARK  168  A    between atoms: _414  and  _416
REMARK  169  A    between atoms: _416  and  _417
REMARK  170  A    between atoms: _420  and  _422
REMARK  171  A    between atoms: _422  and  _423
REMARK  172  A    between atoms: _426  and  _428
REMARK  173  A    between atoms: _428  and  _429
REMARK  174  A    between atoms: _431  and  _433
REMARK  175  A    between atoms: _433  and  _434
REMARK  176  A    between atoms: _433  and  _436
REMARK  177  A    between atoms: _436  and  _437
REMARK  178  A    between atoms: _439  and  _441
REMARK  179  A    between atoms: _441  and  _442
REMARK  180  A    between atoms: _445  and  _447
REMARK  181  A    between atoms: _447  and  _448
REMARK  182  A    between atoms: _451  and  _453
REMARK  183  A    between atoms: _453  and  _454
REMARK  184  A    between atoms: _453  and  _456
REMARK  185  A    between atoms: _456  and  _457
REMARK  186  A    between atoms: _460  and  _462
REMARK  187  A    between atoms: _462  and  _463
REMARK  188  A    between atoms: _462  and  _465
REMARK  189  A    between atoms: _465  and  _466
REMARK  190  A    between atoms: _469  and  _471
REMARK  191  A    between atoms: _471  and  _472
REMARK  192  A    between atoms: _471  and  _474
REMARK  193  A    between atoms: _474  and  _475
REMARK  194  A    between atoms: _478  and  _480
REMARK  195  A    between atoms: _480  and  _481
REMARK  196  A    between atoms: _480  and  _483
REMARK  197  A    between atoms: _483  and  _484
REMARK  198  A    between atoms: _487  and  _489
REMARK  199  A    between atoms: _489  and  _490
REMARK  200  A    between atoms: _489  and  _492
REMARK  201  A    between atoms: _492  and  _493
REMARK  202  A    between atoms: _496  and  _498
REMARK  203  A    between atoms: _498  and  _499
REMARK  204  A    between atoms: _498  and  _501
REMARK  205  A    between atoms: _501  and  _502
REMARK  206  A    between atoms: _502  and  _503
REMARK  207  A    between atoms: _506  and  _508
REMARK  208  A    between atoms: _508  and  _509
REMARK  209  A    between atoms: _511  and  _513
REMARK  210  A    between atoms: _513  and  _514
REMARK  211  A    between atoms: _513  and  _516
REMARK  212  A    between atoms: _516  and  _517
REMARK  213  A    between atoms: _517  and  _518
REMARK  214  A    between atoms: _518  and  _519
REMARK  215  A    between atoms: _519  and  _520
REMARK  216  A    between atoms: _524  and  _526
REMARK  217  A    between atoms: _526  and  _527
REMARK  218  A    between atoms: _526  and  _529
REMARK  219  A    between atoms: _529  and  _530
REMARK  220  A    between atoms: _530  and  _531
REMARK  221  A    between atoms: _537  and  _538
REMARK  222  A    between atoms: _543  and  _545
REMARK  223  A    between atoms: _545  and  _546
REMARK  224  A    between atoms: _545  and  _548
REMARK  225  A    between atoms: _548  and  _549
REMARK  226  A    between atoms: _549  and  _550
REMARK                            x       y       z     vdW  Elec       q    Type
REMARK                         _______ _______ _______ _____ _____    ______ ____
ROOT
ATOM      1  O   HOH     1       8.653 -19.775   4.175  0.00  0.00    +0.000 OA
ENDROOT
TORSDOF 0
