REMARK  Name = ../refined-set-2016/3acx/3acx_pocket.pdb
REMARK  221 active torsions:
REMARK  status: ('A' for Active; 'I' for Inactive)
REMARK    1  A    between atoms: _1  and  _3
REMARK    2  A    between atoms: _3  and  _4
REMARK    3  A    between atoms: _3  and  _6
REMARK    4  A    between atoms: _6  and  _7
REMARK    5  A    between atoms: _10  and  _12
REMARK    6  A    between atoms: _12  and  _13
REMARK    7  A    between atoms: _12  and  _15
REMARK    8  A    between atoms: _15  and  _16
REMARK    9  A    between atoms: _16  and  _17
REMARK   10  A    between atoms: _19  and  _21
REMARK   11  A    between atoms: _21  and  _22
REMARK   12  A    between atoms: _21  and  _24
REMARK   13  A    between atoms: _24  and  _25
REMARK   14  A    between atoms: _30  and  _32
REMARK   15  A    between atoms: _32  and  _33
REMARK   16  A    between atoms: _32  and  _35
REMARK   17  A    between atoms: _35  and  _36
REMARK   18  A    between atoms: _38  and  _40
REMARK   19  A    between atoms: _40  and  _41
REMARK   20  A    between atoms: _40  and  _43
REMARK   21  A    between atoms: _43  and  _44
REMARK   22  A    between atoms: _46  and  _48
REMARK   23  A    between atoms: _48  and  _49
REMARK   24  A    between atoms: _48  and  _51
REMARK   25  A    between atoms: _51  and  _52
REMARK   26  A    between atoms: _58  and  _60
REMARK   27  A    between atoms: _60  and  _61
REMARK   28  A    between atoms: _60  and  _63
REMARK   29  A    between atoms: _63  and  _64
REMARK   30  A    between atoms: _66  and  _68
REMARK   31  A    between atoms: _68  and  _69
REMARK   32  A    between atoms: _68  and  _71
REMARK   33  A    between atoms: _71  and  _72
REMARK   34  A    between atoms: _78  and  _80
REMARK   35  A    between atoms: _80  and  _81
REMARK   36  A    between atoms: _80  and  _83
REMARK   37  A    between atoms: _86  and  _88
REMARK   38  A    between atoms: _88  and  _89
REMARK   39  A    between atoms: _88  and  _91
REMARK   40  A    between atoms: _91  and  _92
REMARK   41  A    between atoms: _102  and  _104
REMARK   42  A    between atoms: _104  and  _105
REMARK   43  A    between atoms: _104  and  _107
REMARK   44  A    between atoms: _107  and  _108
REMARK   45  A    between atoms: _111  and  _113
REMARK   46  A    between atoms: _113  and  _114
REMARK   47  A    between atoms: _113  and  _116
REMARK   48  A    between atoms: _116  and  _117
REMARK   49  A    between atoms: _122  and  _123
REMARK   50  A    between atoms: _125  and  _127
REMARK   51  A    between atoms: _127  and  _128
REMARK   52  A    between atoms: _131  and  _133
REMARK   53  A    between atoms: _133  and  _134
REMARK   54  A    between atoms: _133  and  _136
REMARK   55  A    between atoms: _139  and  _141
REMARK   56  A    between atoms: _141  and  _142
REMARK   57  A    between atoms: _141  and  _144
REMARK   58  A    between atoms: _146  and  _148
REMARK   59  A    between atoms: _148  and  _149
REMARK   60  A    between atoms: _148  and  _151
REMARK   61  A    between atoms: _151  and  _152
REMARK   62  A    between atoms: _152  and  _153
REMARK   63  A    between atoms: _153  and  _154
REMARK   64  A    between atoms: _163  and  _165
REMARK   65  A    between atoms: _165  and  _166
REMARK   66  A    between atoms: _165  and  _168
REMARK   67  A    between atoms: _168  and  _169
REMARK   68  A    between atoms: _169  and  _170
REMARK   69  A    between atoms: _170  and  _171
REMARK   70  A    between atoms: _171  and  _172
REMARK   71  A    between atoms: _176  and  _178
REMARK   72  A    between atoms: _178  and  _179
REMARK   73  A    between atoms: _178  and  _181
REMARK   74  A    between atoms: _181  and  _182
REMARK   75  A    between atoms: _185  and  _187
REMARK   76  A    between atoms: _187  and  _188
REMARK   77  A    between atoms: _187  and  _190
REMARK   78  A    between atoms: _190  and  _191
REMARK   79  A    between atoms: _194  and  _196
REMARK   80  A    between atoms: _196  and  _197
REMARK   81  A    between atoms: _196  and  _199
REMARK   82  A    between atoms: _199  and  _200
REMARK   83  A    between atoms: _203  and  _205
REMARK   84  A    between atoms: _205  and  _206
REMARK   85  A    between atoms: _205  and  _208
REMARK   86  A    between atoms: _208  and  _209
REMARK   87  A    between atoms: _212  and  _214
REMARK   88  A    between atoms: _214  and  _215
REMARK   89  A    between atoms: _214  and  _217
REMARK   90  A    between atoms: _219  and  _221
REMARK   91  A    between atoms: _221  and  _222
REMARK   92  A    between atoms: _221  and  _224
REMARK   93  A    between atoms: _227  and  _229
REMARK   94  A    between atoms: _229  and  _230
REMARK   95  A    between atoms: _233  and  _235
REMARK   96  A    between atoms: _235  and  _236
REMARK   97  A    between atoms: _238  and  _240
REMARK   98  A    between atoms: _240  and  _241
REMARK   99  A    between atoms: _240  and  _243
REMARK  100  A    between atoms: _243  and  _244
REMARK  101  A    between atoms: _247  and  _249
REMARK  102  A    between atoms: _249  and  _250
REMARK  103  A    between atoms: _249  and  _252
REMARK  104  A    between atoms: _255  and  _257
REMARK  105  A    between atoms: _257  and  _258
REMARK  106  A    between atoms: _260  and  _262
REMARK  107  A    between atoms: _262  and  _263
REMARK  108  A    between atoms: _262  and  _265
REMARK  109  A    between atoms: _265  and  _266
REMARK  110  A    between atoms: _266  and  _267
REMARK  111  A    between atoms: _270  and  _272
REMARK  112  A    between atoms: _272  and  _273
REMARK  113  A    between atoms: _272  and  _275
REMARK  114  A    between atoms: _278  and  _280
REMARK  115  A    between atoms: _280  and  _281
REMARK  116  A    between atoms: _280  and  _283
REMARK  117  A    between atoms: _283  and  _284
REMARK  118  A    between atoms: _287  and  _289
REMARK  119  A    between atoms: _289  and  _290
REMARK  120  A    between atoms: _289  and  _292
REMARK  121  A    between atoms: _292  and  _293
REMARK  122  A    between atoms: _296  and  _298
REMARK  123  A    between atoms: _298  and  _299
REMARK  124  A    between atoms: _298  and  _301
REMARK  125  A    between atoms: _301  and  _302
REMARK  126  A    between atoms: _305  and  _307
REMARK  127  A    between atoms: _307  and  _308
REMARK  128  A    between atoms: _307  and  _310
REMARK  129  A    between atoms: _310  and  _311
REMARK  130  A    between atoms: _314  and  _316
REMARK  131  A    between atoms: _316  and  _317
REMARK  132  A    between atoms: _316  and  _319
REMARK  133  A    between atoms: _319  and  _320
REMARK  134  A    between atoms: _325  and  _326
REMARK  135  A    between atoms: _328  and  _330
REMARK  136  A    between atoms: _330  and  _331
REMARK  137  A    between atoms: _330  and  _333
REMARK  138  A    between atoms: _336  and  _338
REMARK  139  A    between atoms: _338  and  _339
REMARK  140  A    between atoms: _342  and  _344
REMARK  141  A    between atoms: _344  and  _345
REMARK  142  A    between atoms: _344  and  _347
REMARK  143  A    between atoms: _347  and  _348
REMARK  144  A    between atoms: _348  and  _349
REMARK  145  A    between atoms: _349  and  _350
REMARK  146  A    between atoms: _359  and  _361
REMARK  147  A    between atoms: _361  and  _362
REMARK  148  A    between atoms: _361  and  _364
REMARK  149  A    between atoms: _364  and  _365
REMARK  150  A    between atoms: _365  and  _366
REMARK  151  A    between atoms: _366  and  _367
REMARK  152  A    between atoms: _376  and  _378
REMARK  153  A    between atoms: _378  and  _379
REMARK  154  A    between atoms: _378  and  _381
REMARK  155  A    between atoms: _381  and  _382
REMARK  156  A    between atoms: _385  and  _387
REMARK  157  A    between atoms: _387  and  _388
REMARK  158  A    between atoms: _390  and  _392
REMARK  159  A    between atoms: _392  and  _393
REMARK  160  A    between atoms: _392  and  _395
REMARK  161  A    between atoms: _395  and  _396
REMARK  162  A    between atoms: _396  and  _397
REMARK  163  A    between atoms: _400  and  _402
REMARK  164  A    between atoms: _402  and  _403
REMARK  165  A    between atoms: _402  and  _405
REMARK  166  A    between atoms: _405  and  _406
REMARK  167  A    between atoms: _408  and  _410
REMARK  168  A    between atoms: _410  and  _411
REMARK  169  A    between atoms: _410  and  _413
REMARK  170  A    between atoms: _413  and  _414
REMARK  171  A    between atoms: _417  and  _419
REMARK  172  A    between atoms: _419  and  _420
REMARK  173  A    between atoms: _419  and  _422
REMARK  174  A    between atoms: _422  and  _423
REMARK  175  A    between atoms: _423  and  _424
REMARK  176  A    between atoms: _429  and  _431
REMARK  177  A    between atoms: _431  and  _432
REMARK  178  A    between atoms: _431  and  _434
REMARK  179  A    between atoms: _434  and  _435
REMARK  180  A    between atoms: _438  and  _440
REMARK  181  A    between atoms: _440  and  _441
REMARK  182  A    between atoms: _440  and  _443
REMARK  183  A    between atoms: _443  and  _444
REMARK  184  A    between atoms: _449  and  _451
REMARK  185  A    between atoms: _451  and  _452
REMARK  186  A    between atoms: _451  and  _454
REMARK  187  A    between atoms: _457  and  _459
REMARK  188  A    between atoms: _459  and  _460
REMARK  189  A    between atoms: _459  and  _462
REMARK  190  A    between atoms: _462  and  _463
REMARK  191  A    between atoms: _466  and  _468
REMARK  192  A    between atoms: _468  and  _469
REMARK  193  A    between atoms: _468  and  _471
REMARK  194  A    between atoms: _474  and  _476
REMARK  195  A    between atoms: _476  and  _477
REMARK  196  A    between atoms: _476  and  _479
REMARK  197  A    between atoms: _479  and  _480
REMARK  198  A    between atoms: _486  and  _488
REMARK  199  A    between atoms: _488  and  _489
REMARK  200  A    between atoms: _492  and  _494
REMARK  201  A    between atoms: _494  and  _495
REMARK  202  A    between atoms: _494  and  _497
REMARK  203  A    between atoms: _497  and  _498
REMARK  204  A    between atoms: _501  and  _503
REMARK  205  A    between atoms: _503  and  _504
REMARK  206  A    between atoms: _503  and  _506
REMARK  207  A    between atoms: _506  and  _507
REMARK  208  A    between atoms: _510  and  _512
REMARK  209  A    between atoms: _512  and  _513
REMARK  210  A    between atoms: _512  and  _515
REMARK  211  A    between atoms: _515  and  _516
REMARK  212  A    between atoms: _516  and  _517
REMARK  213  A    between atoms: _520  and  _522
REMARK  214  A    between atoms: _522  and  _523
REMARK  215  A    between atoms: _526  and  _528
REMARK  216  A    between atoms: _528  and  _529
REMARK  217  A    between atoms: _532  and  _534
REMARK  218  A    between atoms: _534  and  _535
REMARK  219  A    between atoms: _534  and  _537
REMARK  220  A    between atoms: _537  and  _538
REMARK  221  A    between atoms: _543  and  _544
REMARK                            x       y       z     vdW  Elec       q    Type
REMARK                         _______ _______ _______ _____ _____    ______ ____
ROOT
ATOM      1  C   ILE A   1      53.320   8.411  63.495  0.00  0.00    +0.238 C 
ATOM      2  N   MET A   2      53.588   9.710  63.591  0.00  0.00    -0.298 N 
ATOM      3  H   MET A   2      53.069  10.297  64.274  0.00  0.00    +0.150 HD
ATOM      4  O   ILE A   1      53.926   7.682  62.705  0.00  0.00    -0.274 OA
ENDROOT
BRANCH   1   5
ATOM      5  CA  ILE A   1      52.211   7.860  64.388  0.00  0.00    +0.145 C 
BRANCH   5   6
ATOM      6  N   ILE A   1      52.377   8.327  65.759  0.00  0.00    -0.238 NA
ATOM      7  H   ILE A   1      51.625   8.896  66.197  0.00  0.00    +0.142 HD
ENDBRANCH   5   6
BRANCH   5   8
ATOM      8  CB  ILE A   1      50.836   8.291  63.837  0.00  0.00    +0.025 C 
ATOM      9  CG2 ILE A   1      50.768   8.061  62.330  0.00  0.00    +0.002 C 
BRANCH   8  10
ATOM     10  CG1 ILE A   1      49.717   7.529  64.559  0.00  0.00    +0.002 C 
ATOM     11  CD1 ILE A   1      48.358   7.999  64.160  0.00  0.00    +0.000 C 
ENDBRANCH   8  10
ENDBRANCH   5   8
ENDBRANCH   1   5
BRANCH   2  12
ATOM     12  CA  MET A   2      54.607  10.314  62.742  0.00  0.00    +0.138 C 
BRANCH  12  13
ATOM     13  C   MET A   2      55.986   9.728  63.031  0.00  0.00    +0.227 C 
ATOM     14  O   MET A   2      56.723   9.375  62.104  0.00  0.00    -0.286 OA
ENDBRANCH  12  13
BRANCH  12  15
ATOM     15  CB  MET A   2      54.602  11.830  62.903  0.00  0.00    +0.039 C 
BRANCH  15  16
ATOM     16  CG  MET A   2      55.632  12.484  62.008  0.00  0.00    +0.060 C 
BRANCH  16  17
ATOM     17  SD  MET A   2      55.468  14.273  62.057  0.00  0.00    -0.139 S 
ATOM     18  CE  MET A   2      56.794  14.714  60.931  0.00  0.00    +0.069 C 
ENDBRANCH  16  17
ENDBRANCH  15  16
ENDBRANCH  12  15
ENDBRANCH   2  12
TORSDOF 9
REMARK  Name = ../refined-set-2016/3acx/3acx_pocket.pdb
REMARK  221 active torsions:
REMARK  status: ('A' for Active; 'I' for Inactive)
REMARK    1  A    between atoms: _1  and  _3
REMARK    2  A    between atoms: _3  and  _4
REMARK    3  A    between atoms: _3  and  _6
REMARK    4  A    between atoms: _6  and  _7
REMARK    5  A    between atoms: _10  and  _12
REMARK    6  A    between atoms: _12  and  _13
REMARK    7  A    between atoms: _12  and  _15
REMARK    8  A    between atoms: _15  and  _16
REMARK    9  A    between atoms: _16  and  _17
REMARK   10  A    between atoms: _19  and  _21
REMARK   11  A    between atoms: _21  and  _22
REMARK   12  A    between atoms: _21  and  _24
REMARK   13  A    between atoms: _24  and  _25
REMARK   14  A    between atoms: _30  and  _32
REMARK   15  A    between atoms: _32  and  _33
REMARK   16  A    between atoms: _32  and  _35
REMARK   17  A    between atoms: _35  and  _36
REMARK   18  A    between atoms: _38  and  _40
REMARK   19  A    between atoms: _40  and  _41
REMARK   20  A    between atoms: _40  and  _43
REMARK   21  A    between atoms: _43  and  _44
REMARK   22  A    between atoms: _46  and  _48
REMARK   23  A    between atoms: _48  and  _49
REMARK   24  A    between atoms: _48  and  _51
REMARK   25  A    between atoms: _51  and  _52
REMARK   26  A    between atoms: _58  and  _60
REMARK   27  A    between atoms: _60  and  _61
REMARK   28  A    between atoms: _60  and  _63
REMARK   29  A    between atoms: _63  and  _64
REMARK   30  A    between atoms: _66  and  _68
REMARK   31  A    between atoms: _68  and  _69
REMARK   32  A    between atoms: _68  and  _71
REMARK   33  A    between atoms: _71  and  _72
REMARK   34  A    between atoms: _78  and  _80
REMARK   35  A    between atoms: _80  and  _81
REMARK   36  A    between atoms: _80  and  _83
REMARK   37  A    between atoms: _86  and  _88
REMARK   38  A    between atoms: _88  and  _89
REMARK   39  A    between atoms: _88  and  _91
REMARK   40  A    between atoms: _91  and  _92
REMARK   41  A    between atoms: _102  and  _104
REMARK   42  A    between atoms: _104  and  _105
REMARK   43  A    between atoms: _104  and  _107
REMARK   44  A    between atoms: _107  and  _108
REMARK   45  A    between atoms: _111  and  _113
REMARK   46  A    between atoms: _113  and  _114
REMARK   47  A    between atoms: _113  and  _116
REMARK   48  A    between atoms: _116  and  _117
REMARK   49  A    between atoms: _122  and  _123
REMARK   50  A    between atoms: _125  and  _127
REMARK   51  A    between atoms: _127  and  _128
REMARK   52  A    between atoms: _131  and  _133
REMARK   53  A    between atoms: _133  and  _134
REMARK   54  A    between atoms: _133  and  _136
REMARK   55  A    between atoms: _139  and  _141
REMARK   56  A    between atoms: _141  and  _142
REMARK   57  A    between atoms: _141  and  _144
REMARK   58  A    between atoms: _146  and  _148
REMARK   59  A    between atoms: _148  and  _149
REMARK   60  A    between atoms: _148  and  _151
REMARK   61  A    between atoms: _151  and  _152
REMARK   62  A    between atoms: _152  and  _153
REMARK   63  A    between atoms: _153  and  _154
REMARK   64  A    between atoms: _163  and  _165
REMARK   65  A    between atoms: _165  and  _166
REMARK   66  A    between atoms: _165  and  _168
REMARK   67  A    between atoms: _168  and  _169
REMARK   68  A    between atoms: _169  and  _170
REMARK   69  A    between atoms: _170  and  _171
REMARK   70  A    between atoms: _171  and  _172
REMARK   71  A    between atoms: _176  and  _178
REMARK   72  A    between atoms: _178  and  _179
REMARK   73  A    between atoms: _178  and  _181
REMARK   74  A    between atoms: _181  and  _182
REMARK   75  A    between atoms: _185  and  _187
REMARK   76  A    between atoms: _187  and  _188
REMARK   77  A    between atoms: _187  and  _190
REMARK   78  A    between atoms: _190  and  _191
REMARK   79  A    between atoms: _194  and  _196
REMARK   80  A    between atoms: _196  and  _197
REMARK   81  A    between atoms: _196  and  _199
REMARK   82  A    between atoms: _199  and  _200
REMARK   83  A    between atoms: _203  and  _205
REMARK   84  A    between atoms: _205  and  _206
REMARK   85  A    between atoms: _205  and  _208
REMARK   86  A    between atoms: _208  and  _209
REMARK   87  A    between atoms: _212  and  _214
REMARK   88  A    between atoms: _214  and  _215
REMARK   89  A    between atoms: _214  and  _217
REMARK   90  A    between atoms: _219  and  _221
REMARK   91  A    between atoms: _221  and  _222
REMARK   92  A    between atoms: _221  and  _224
REMARK   93  A    between atoms: _227  and  _229
REMARK   94  A    between atoms: _229  and  _230
REMARK   95  A    between atoms: _233  and  _235
REMARK   96  A    between atoms: _235  and  _236
REMARK   97  A    between atoms: _238  and  _240
REMARK   98  A    between atoms: _240  and  _241
REMARK   99  A    between atoms: _240  and  _243
REMARK  100  A    between atoms: _243  and  _244
REMARK  101  A    between atoms: _247  and  _249
REMARK  102  A    between atoms: _249  and  _250
REMARK  103  A    between atoms: _249  and  _252
REMARK  104  A    between atoms: _255  and  _257
REMARK  105  A    between atoms: _257  and  _258
REMARK  106  A    between atoms: _260  and  _262
REMARK  107  A    between atoms: _262  and  _263
REMARK  108  A    between atoms: _262  and  _265
REMARK  109  A    between atoms: _265  and  _266
REMARK  110  A    between atoms: _266  and  _267
REMARK  111  A    between atoms: _270  and  _272
REMARK  112  A    between atoms: _272  and  _273
REMARK  113  A    between atoms: _272  and  _275
REMARK  114  A    between atoms: _278  and  _280
REMARK  115  A    between atoms: _280  and  _281
REMARK  116  A    between atoms: _280  and  _283
REMARK  117  A    between atoms: _283  and  _284
REMARK  118  A    between atoms: _287  and  _289
REMARK  119  A    between atoms: _289  and  _290
REMARK  120  A    between atoms: _289  and  _292
REMARK  121  A    between atoms: _292  and  _293
REMARK  122  A    between atoms: _296  and  _298
REMARK  123  A    between atoms: _298  and  _299
REMARK  124  A    between atoms: _298  and  _301
REMARK  125  A    between atoms: _301  and  _302
REMARK  126  A    between atoms: _305  and  _307
REMARK  127  A    between atoms: _307  and  _308
REMARK  128  A    between atoms: _307  and  _310
REMARK  129  A    between atoms: _310  and  _311
REMARK  130  A    between atoms: _314  and  _316
REMARK  131  A    between atoms: _316  and  _317
REMARK  132  A    between atoms: _316  and  _319
REMARK  133  A    between atoms: _319  and  _320
REMARK  134  A    between atoms: _325  and  _326
REMARK  135  A    between atoms: _328  and  _330
REMARK  136  A    between atoms: _330  and  _331
REMARK  137  A    between atoms: _330  and  _333
REMARK  138  A    between atoms: _336  and  _338
REMARK  139  A    between atoms: _338  and  _339
REMARK  140  A    between atoms: _342  and  _344
REMARK  141  A    between atoms: _344  and  _345
REMARK  142  A    between atoms: _344  and  _347
REMARK  143  A    between atoms: _347  and  _348
REMARK  144  A    between atoms: _348  and  _349
REMARK  145  A    between atoms: _349  and  _350
REMARK  146  A    between atoms: _359  and  _361
REMARK  147  A    between atoms: _361  and  _362
REMARK  148  A    between atoms: _361  and  _364
REMARK  149  A    between atoms: _364  and  _365
REMARK  150  A    between atoms: _365  and  _366
REMARK  151  A    between atoms: _366  and  _367
REMARK  152  A    between atoms: _376  and  _378
REMARK  153  A    between atoms: _378  and  _379
REMARK  154  A    between atoms: _378  and  _381
REMARK  155  A    between atoms: _381  and  _382
REMARK  156  A    between atoms: _385  and  _387
REMARK  157  A    between atoms: _387  and  _388
REMARK  158  A    between atoms: _390  and  _392
REMARK  159  A    between atoms: _392  and  _393
REMARK  160  A    between atoms: _392  and  _395
REMARK  161  A    between atoms: _395  and  _396
REMARK  162  A    between atoms: _396  and  _397
REMARK  163  A    between atoms: _400  and  _402
REMARK  164  A    between atoms: _402  and  _403
REMARK  165  A    between atoms: _402  and  _405
REMARK  166  A    between atoms: _405  and  _406
REMARK  167  A    between atoms: _408  and  _410
REMARK  168  A    between atoms: _410  and  _411
REMARK  169  A    between atoms: _410  and  _413
REMARK  170  A    between atoms: _413  and  _414
REMARK  171  A    between atoms: _417  and  _419
REMARK  172  A    between atoms: _419  and  _420
REMARK  173  A    between atoms: _419  and  _422
REMARK  174  A    between atoms: _422  and  _423
REMARK  175  A    between atoms: _423  and  _424
REMARK  176  A    between atoms: _429  and  _431
REMARK  177  A    between atoms: _431  and  _432
REMARK  178  A    between atoms: _431  and  _434
REMARK  179  A    between atoms: _434  and  _435
REMARK  180  A    between atoms: _438  and  _440
REMARK  181  A    between atoms: _440  and  _441
REMARK  182  A    between atoms: _440  and  _443
REMARK  183  A    between atoms: _443  and  _444
REMARK  184  A    between atoms: _449  and  _451
REMARK  185  A    between atoms: _451  and  _452
REMARK  186  A    between atoms: _451  and  _454
REMARK  187  A    between atoms: _457  and  _459
REMARK  188  A    between atoms: _459  and  _460
REMARK  189  A    between atoms: _459  and  _462
REMARK  190  A    between atoms: _462  and  _463
REMARK  191  A    between atoms: _466  and  _468
REMARK  192  A    between atoms: _468  and  _469
REMARK  193  A    between atoms: _468  and  _471
REMARK  194  A    between atoms: _474  and  _476
REMARK  195  A    between atoms: _476  and  _477
REMARK  196  A    between atoms: _476  and  _479
REMARK  197  A    between atoms: _479  and  _480
REMARK  198  A    between atoms: _486  and  _488
REMARK  199  A    between atoms: _488  and  _489
REMARK  200  A    between atoms: _492  and  _494
REMARK  201  A    between atoms: _494  and  _495
REMARK  202  A    between atoms: _494  and  _497
REMARK  203  A    between atoms: _497  and  _498
REMARK  204  A    between atoms: _501  and  _503
REMARK  205  A    between atoms: _503  and  _504
REMARK  206  A    between atoms: _503  and  _506
REMARK  207  A    between atoms: _506  and  _507
REMARK  208  A    between atoms: _510  and  _512
REMARK  209  A    between atoms: _512  and  _513
REMARK  210  A    between atoms: _512  and  _515
REMARK  211  A    between atoms: _515  and  _516
REMARK  212  A    between atoms: _516  and  _517
REMARK  213  A    between atoms: _520  and  _522
REMARK  214  A    between atoms: _522  and  _523
REMARK  215  A    between atoms: _526  and  _528
REMARK  216  A    between atoms: _528  and  _529
REMARK  217  A    between atoms: _532  and  _534
REMARK  218  A    between atoms: _534  and  _535
REMARK  219  A    between atoms: _534  and  _537
REMARK  220  A    between atoms: _537  and  _538
REMARK  221  A    between atoms: _543  and  _544
REMARK                            x       y       z     vdW  Elec       q    Type
REMARK                         _______ _______ _______ _____ _____    ______ ____
ROOT
ATOM      1  C   HIS A   1      57.767   6.726  59.664  0.00  0.00    +0.239 C 
ATOM      2  N   SER A   2      58.198   7.843  60.233  0.00  0.00    -0.296 N 
ATOM      3  H   SER A   2      57.715   8.217  61.075  0.00  0.00    +0.150 HD
ATOM      4  O   HIS A   1      58.317   6.220  58.677  0.00  0.00    -0.274 OA
ENDROOT
BRANCH   1   5
ATOM      5  CA  HIS A   1      56.514   6.093  60.249  0.00  0.00    +0.151 C 
BRANCH   5   6
ATOM      6  N   HIS A   1      56.452   6.193  61.701  0.00  0.00    -0.238 NA
ATOM      7  H   HIS A   1      55.878   6.947  62.130  0.00  0.00    +0.142 HD
ENDBRANCH   5   6
BRANCH   5   8
ATOM      8  CB  HIS A   1      55.268   6.758  59.642  0.00  0.00    +0.074 C 
BRANCH   8   9
ATOM      9  CG  HIS A   1      55.132   6.557  58.168  0.00  0.00    +0.082 A 
ATOM     10  CD2 HIS A   1      54.843   5.443  57.458  0.00  0.00    +0.115 A 
ATOM     11  NE2 HIS A   1      54.856   5.798  56.132  0.00  0.00    -0.221 NA
ATOM     12  CE1 HIS A   1      55.118   7.091  56.033  0.00  0.00    +0.199 A 
ATOM     13  ND1 HIS A   1      55.311   7.568  57.249  0.00  0.00    -0.227 NA
ENDBRANCH   8   9
ENDBRANCH   5   8
ENDBRANCH   1   5
BRANCH   2  14
ATOM     14  CA  SER A   2      59.349   8.549  59.681  0.00  0.00    +0.166 C 
BRANCH  14  15
ATOM     15  CB  SER A   2      60.261   9.058  60.771  0.00  0.00    +0.229 C 
ATOM     16  OG  SER A   2      60.033  10.116  61.359  0.00  0.00    -0.286 OA
ENDBRANCH  14  15
BRANCH  14  17
ATOM     17  C   SER A   2      58.962   9.716  58.780  0.00  0.00    +0.165 C 
BRANCH  17  18
ATOM     18  O   SER A   2      60.156  10.325  58.296  0.00  0.00    -0.380 OA
ATOM     19  H   SER A   2      60.693  10.651  59.062  0.00  0.00    +0.211 HD
ENDBRANCH  17  18
ENDBRANCH  14  17
ENDBRANCH   2  14
TORSDOF 8
REMARK  Name = ../refined-set-2016/3acx/3acx_pocket.pdb
REMARK  221 active torsions:
REMARK  status: ('A' for Active; 'I' for Inactive)
REMARK    1  A    between atoms: _1  and  _3
REMARK    2  A    between atoms: _3  and  _4
REMARK    3  A    between atoms: _3  and  _6
REMARK    4  A    between atoms: _6  and  _7
REMARK    5  A    between atoms: _10  and  _12
REMARK    6  A    between atoms: _12  and  _13
REMARK    7  A    between atoms: _12  and  _15
REMARK    8  A    between atoms: _15  and  _16
REMARK    9  A    between atoms: _16  and  _17
REMARK   10  A    between atoms: _19  and  _21
REMARK   11  A    between atoms: _21  and  _22
REMARK   12  A    between atoms: _21  and  _24
REMARK   13  A    between atoms: _24  and  _25
REMARK   14  A    between atoms: _30  and  _32
REMARK   15  A    between atoms: _32  and  _33
REMARK   16  A    between atoms: _32  and  _35
REMARK   17  A    between atoms: _35  and  _36
REMARK   18  A    between atoms: _38  and  _40
REMARK   19  A    between atoms: _40  and  _41
REMARK   20  A    between atoms: _40  and  _43
REMARK   21  A    between atoms: _43  and  _44
REMARK   22  A    between atoms: _46  and  _48
REMARK   23  A    between atoms: _48  and  _49
REMARK   24  A    between atoms: _48  and  _51
REMARK   25  A    between atoms: _51  and  _52
REMARK   26  A    between atoms: _58  and  _60
REMARK   27  A    between atoms: _60  and  _61
REMARK   28  A    between atoms: _60  and  _63
REMARK   29  A    between atoms: _63  and  _64
REMARK   30  A    between atoms: _66  and  _68
REMARK   31  A    between atoms: _68  and  _69
REMARK   32  A    between atoms: _68  and  _71
REMARK   33  A    between atoms: _71  and  _72
REMARK   34  A    between atoms: _78  and  _80
REMARK   35  A    between atoms: _80  and  _81
REMARK   36  A    between atoms: _80  and  _83
REMARK   37  A    between atoms: _86  and  _88
REMARK   38  A    between atoms: _88  and  _89
REMARK   39  A    between atoms: _88  and  _91
REMARK   40  A    between atoms: _91  and  _92
REMARK   41  A    between atoms: _102  and  _104
REMARK   42  A    between atoms: _104  and  _105
REMARK   43  A    between atoms: _104  and  _107
REMARK   44  A    between atoms: _107  and  _108
REMARK   45  A    between atoms: _111  and  _113
REMARK   46  A    between atoms: _113  and  _114
REMARK   47  A    between atoms: _113  and  _116
REMARK   48  A    between atoms: _116  and  _117
REMARK   49  A    between atoms: _122  and  _123
REMARK   50  A    between atoms: _125  and  _127
REMARK   51  A    between atoms: _127  and  _128
REMARK   52  A    between atoms: _131  and  _133
REMARK   53  A    between atoms: _133  and  _134
REMARK   54  A    between atoms: _133  and  _136
REMARK   55  A    between atoms: _139  and  _141
REMARK   56  A    between atoms: _141  and  _142
REMARK   57  A    between atoms: _141  and  _144
REMARK   58  A    between atoms: _146  and  _148
REMARK   59  A    between atoms: _148  and  _149
REMARK   60  A    between atoms: _148  and  _151
REMARK   61  A    between atoms: _151  and  _152
REMARK   62  A    between atoms: _152  and  _153
REMARK   63  A    between atoms: _153  and  _154
REMARK   64  A    between atoms: _163  and  _165
REMARK   65  A    between atoms: _165  and  _166
REMARK   66  A    between atoms: _165  and  _168
REMARK   67  A    between atoms: _168  and  _169
REMARK   68  A    between atoms: _169  and  _170
REMARK   69  A    between atoms: _170  and  _171
REMARK   70  A    between atoms: _171  and  _172
REMARK   71  A    between atoms: _176  and  _178
REMARK   72  A    between atoms: _178  and  _179
REMARK   73  A    between atoms: _178  and  _181
REMARK   74  A    between atoms: _181  and  _182
REMARK   75  A    between atoms: _185  and  _187
REMARK   76  A    between atoms: _187  and  _188
REMARK   77  A    between atoms: _187  and  _190
REMARK   78  A    between atoms: _190  and  _191
REMARK   79  A    between atoms: _194  and  _196
REMARK   80  A    between atoms: _196  and  _197
REMARK   81  A    between atoms: _196  and  _199
REMARK   82  A    between atoms: _199  and  _200
REMARK   83  A    between atoms: _203  and  _205
REMARK   84  A    between atoms: _205  and  _206
REMARK   85  A    between atoms: _205  and  _208
REMARK   86  A    between atoms: _208  and  _209
REMARK   87  A    between atoms: _212  and  _214
REMARK   88  A    between atoms: _214  and  _215
REMARK   89  A    between atoms: _214  and  _217
REMARK   90  A    between atoms: _219  and  _221
REMARK   91  A    between atoms: _221  and  _222
REMARK   92  A    between atoms: _221  and  _224
REMARK   93  A    between atoms: _227  and  _229
REMARK   94  A    between atoms: _229  and  _230
REMARK   95  A    between atoms: _233  and  _235
REMARK   96  A    between atoms: _235  and  _236
REMARK   97  A    between atoms: _238  and  _240
REMARK   98  A    between atoms: _240  and  _241
REMARK   99  A    between atoms: _240  and  _243
REMARK  100  A    between atoms: _243  and  _244
REMARK  101  A    between atoms: _247  and  _249
REMARK  102  A    between atoms: _249  and  _250
REMARK  103  A    between atoms: _249  and  _252
REMARK  104  A    between atoms: _255  and  _257
REMARK  105  A    between atoms: _257  and  _258
REMARK  106  A    between atoms: _260  and  _262
REMARK  107  A    between atoms: _262  and  _263
REMARK  108  A    between atoms: _262  and  _265
REMARK  109  A    between atoms: _265  and  _266
REMARK  110  A    between atoms: _266  and  _267
REMARK  111  A    between atoms: _270  and  _272
REMARK  112  A    between atoms: _272  and  _273
REMARK  113  A    between atoms: _272  and  _275
REMARK  114  A    between atoms: _278  and  _280
REMARK  115  A    between atoms: _280  and  _281
REMARK  116  A    between atoms: _280  and  _283
REMARK  117  A    between atoms: _283  and  _284
REMARK  118  A    between atoms: _287  and  _289
REMARK  119  A    between atoms: _289  and  _290
REMARK  120  A    between atoms: _289  and  _292
REMARK  121  A    between atoms: _292  and  _293
REMARK  122  A    between atoms: _296  and  _298
REMARK  123  A    between atoms: _298  and  _299
REMARK  124  A    between atoms: _298  and  _301
REMARK  125  A    between atoms: _301  and  _302
REMARK  126  A    between atoms: _305  and  _307
REMARK  127  A    between atoms: _307  and  _308
REMARK  128  A    between atoms: _307  and  _310
REMARK  129  A    between atoms: _310  and  _311
REMARK  130  A    between atoms: _314  and  _316
REMARK  131  A    between atoms: _316  and  _317
REMARK  132  A    between atoms: _316  and  _319
REMARK  133  A    between atoms: _319  and  _320
REMARK  134  A    between atoms: _325  and  _326
REMARK  135  A    between atoms: _328  and  _330
REMARK  136  A    between atoms: _330  and  _331
REMARK  137  A    between atoms: _330  and  _333
REMARK  138  A    between atoms: _336  and  _338
REMARK  139  A    between atoms: _338  and  _339
REMARK  140  A    between atoms: _342  and  _344
REMARK  141  A    between atoms: _344  and  _345
REMARK  142  A    between atoms: _344  and  _347
REMARK  143  A    between atoms: _347  and  _348
REMARK  144  A    between atoms: _348  and  _349
REMARK  145  A    between atoms: _349  and  _350
REMARK  146  A    between atoms: _359  and  _361
REMARK  147  A    between atoms: _361  and  _362
REMARK  148  A    between atoms: _361  and  _364
REMARK  149  A    between atoms: _364  and  _365
REMARK  150  A    between atoms: _365  and  _366
REMARK  151  A    between atoms: _366  and  _367
REMARK  152  A    between atoms: _376  and  _378
REMARK  153  A    between atoms: _378  and  _379
REMARK  154  A    between atoms: _378  and  _381
REMARK  155  A    between atoms: _381  and  _382
REMARK  156  A    between atoms: _385  and  _387
REMARK  157  A    between atoms: _387  and  _388
REMARK  158  A    between atoms: _390  and  _392
REMARK  159  A    between atoms: _392  and  _393
REMARK  160  A    between atoms: _392  and  _395
REMARK  161  A    between atoms: _395  and  _396
REMARK  162  A    between atoms: _396  and  _397
REMARK  163  A    between atoms: _400  and  _402
REMARK  164  A    between atoms: _402  and  _403
REMARK  165  A    between atoms: _402  and  _405
REMARK  166  A    between atoms: _405  and  _406
REMARK  167  A    between atoms: _408  and  _410
REMARK  168  A    between atoms: _410  and  _411
REMARK  169  A    between atoms: _410  and  _413
REMARK  170  A    between atoms: _413  and  _414
REMARK  171  A    between atoms: _417  and  _419
REMARK  172  A    between atoms: _419  and  _420
REMARK  173  A    between atoms: _419  and  _422
REMARK  174  A    between atoms: _422  and  _423
REMARK  175  A    between atoms: _423  and  _424
REMARK  176  A    between atoms: _429  and  _431
REMARK  177  A    between atoms: _431  and  _432
REMARK  178  A    between atoms: _431  and  _434
REMARK  179  A    between atoms: _434  and  _435
REMARK  180  A    between atoms: _438  and  _440
REMARK  181  A    between atoms: _440  and  _441
REMARK  182  A    between atoms: _440  and  _443
REMARK  183  A    between atoms: _443  and  _444
REMARK  184  A    between atoms: _449  and  _451
REMARK  185  A    between atoms: _451  and  _452
REMARK  186  A    between atoms: _451  and  _454
REMARK  187  A    between atoms: _457  and  _459
REMARK  188  A    between atoms: _459  and  _460
REMARK  189  A    between atoms: _459  and  _462
REMARK  190  A    between atoms: _462  and  _463
REMARK  191  A    between atoms: _466  and  _468
REMARK  192  A    between atoms: _468  and  _469
REMARK  193  A    between atoms: _468  and  _471
REMARK  194  A    between atoms: _474  and  _476
REMARK  195  A    between atoms: _476  and  _477
REMARK  196  A    between atoms: _476  and  _479
REMARK  197  A    between atoms: _479  and  _480
REMARK  198  A    between atoms: _486  and  _488
REMARK  199  A    between atoms: _488  and  _489
REMARK  200  A    between atoms: _492  and  _494
REMARK  201  A    between atoms: _494  and  _495
REMARK  202  A    between atoms: _494  and  _497
REMARK  203  A    between atoms: _497  and  _498
REMARK  204  A    between atoms: _501  and  _503
REMARK  205  A    between atoms: _503  and  _504
REMARK  206  A    between atoms: _503  and  _506
REMARK  207  A    between atoms: _506  and  _507
REMARK  208  A    between atoms: _510  and  _512
REMARK  209  A    between atoms: _512  and  _513
REMARK  210  A    between atoms: _512  and  _515
REMARK  211  A    between atoms: _515  and  _516
REMARK  212  A    between atoms: _516  and  _517
REMARK  213  A    between atoms: _520  and  _522
REMARK  214  A    between atoms: _522  and  _523
REMARK  215  A    between atoms: _526  and  _528
REMARK  216  A    between atoms: _528  and  _529
REMARK  217  A    between atoms: _532  and  _534
REMARK  218  A    between atoms: _534  and  _535
REMARK  219  A    between atoms: _534  and  _537
REMARK  220  A    between atoms: _537  and  _538
REMARK  221  A    between atoms: _543  and  _544
REMARK                            x       y       z     vdW  Elec       q    Type
REMARK                         _______ _______ _______ _____ _____    ______ ____
ROOT
ATOM      1  CA  PHE A   2      60.745  13.833  59.522  0.00  0.00    +0.153 C 
ENDROOT
BRANCH   1   4
ATOM      2  C   SER A   1      62.863  12.729  59.734  0.00  0.00    +0.241 C 
ATOM      3  O   SER A   1      63.381  13.768  60.169  0.00  0.00    -0.274 OA
ATOM      4  N   PHE A   2      61.580  12.648  59.396  0.00  0.00    -0.297 N 
ATOM      5  H   PHE A   2      61.180  11.753  59.048  0.00  0.00    +0.150 HD
BRANCH   2   6
ATOM      6  CA  SER A   1      63.673  11.470  59.479  0.00  0.00    +0.174 C 
BRANCH   6   7
ATOM      7  N   SER A   1      63.085  10.265  60.067  0.00  0.00    -0.236 NA
ATOM      8  H   SER A   1      62.752   9.501  59.445  0.00  0.00    +0.142 HD
ENDBRANCH   6   7
BRANCH   6   9
ATOM      9  CB  SER A   1      63.826  11.291  57.973  0.00  0.00    +0.163 C 
BRANCH   9  10
ATOM     10  OG  SER A   1      64.717  10.235  57.692  0.00  0.00    -0.380 OA
ATOM     11  H   SER A   1      64.806  10.132  56.711  0.00  0.00    +0.211 HD
ENDBRANCH   9  10
ENDBRANCH   6   9
ENDBRANCH   2   6
ENDBRANCH   1   4
BRANCH   1  12
ATOM     12  C   PHE A   2      60.456  14.159  60.979  0.00  0.00    +0.241 C 
ATOM     13  N   SER A   3      60.325  13.138  61.825  0.00  0.00    -0.296 N 
ATOM     14  H   SER A   3      60.331  12.159  61.474  0.00  0.00    +0.150 HD
ATOM     15  O   PHE A   2      60.377  15.327  61.344  0.00  0.00    -0.273 OA
BRANCH  13  16
ATOM     16  CA  SER A   3      60.172  13.413  63.253  0.00  0.00    +0.166 C 
BRANCH  16  17
ATOM     17  CB  SER A   3      61.428  14.075  63.813  0.00  0.00    +0.229 C 
ATOM     18  OG  SER A   3      61.339  15.037  64.575  0.00  0.00    -0.286 OA
ENDBRANCH  16  17
BRANCH  16  19
ATOM     19  C   SER A   3      59.806  12.153  64.042  0.00  0.00    +0.165 C 
BRANCH  19  20
ATOM     20  O   SER A   3      60.735  11.119  63.867  0.00  0.00    -0.380 OA
ATOM     21  H   SER A   3      60.780  10.876  62.908  0.00  0.00    +0.211 HD
ENDBRANCH  19  20
ENDBRANCH  16  19
ENDBRANCH  13  16
ENDBRANCH   1  12
BRANCH   1  22
ATOM     22  CB  PHE A   2      59.473  13.737  58.675  0.00  0.00    +0.055 C 
BRANCH  22  23
ATOM     23  CG  PHE A   2      59.737  13.547  57.198  0.00  0.00    -0.020 A 
ATOM     24  CD2 PHE A   2      60.707  14.294  56.553  0.00  0.00    -0.004 A 
ATOM     25  CE2 PHE A   2      60.966  14.117  55.201  0.00  0.00    -0.000 A 
ATOM     26  CZ  PHE A   2      60.248  13.205  54.466  0.00  0.00    -0.000 A 
ATOM     27  CE1 PHE A   2      59.257  12.475  55.082  0.00  0.00    -0.000 A 
ATOM     28  CD1 PHE A   2      59.009  12.637  56.447  0.00  0.00    -0.004 A 
ENDBRANCH  22  23
ENDBRANCH   1  22
TORSDOF 12
REMARK  Name = ../refined-set-2016/3acx/3acx_pocket.pdb
REMARK  221 active torsions:
REMARK  status: ('A' for Active; 'I' for Inactive)
REMARK    1  A    between atoms: _1  and  _3
REMARK    2  A    between atoms: _3  and  _4
REMARK    3  A    between atoms: _3  and  _6
REMARK    4  A    between atoms: _6  and  _7
REMARK    5  A    between atoms: _10  and  _12
REMARK    6  A    between atoms: _12  and  _13
REMARK    7  A    between atoms: _12  and  _15
REMARK    8  A    between atoms: _15  and  _16
REMARK    9  A    between atoms: _16  and  _17
REMARK   10  A    between atoms: _19  and  _21
REMARK   11  A    between atoms: _21  and  _22
REMARK   12  A    between atoms: _21  and  _24
REMARK   13  A    between atoms: _24  and  _25
REMARK   14  A    between atoms: _30  and  _32
REMARK   15  A    between atoms: _32  and  _33
REMARK   16  A    between atoms: _32  and  _35
REMARK   17  A    between atoms: _35  and  _36
REMARK   18  A    between atoms: _38  and  _40
REMARK   19  A    between atoms: _40  and  _41
REMARK   20  A    between atoms: _40  and  _43
REMARK   21  A    between atoms: _43  and  _44
REMARK   22  A    between atoms: _46  and  _48
REMARK   23  A    between atoms: _48  and  _49
REMARK   24  A    between atoms: _48  and  _51
REMARK   25  A    between atoms: _51  and  _52
REMARK   26  A    between atoms: _58  and  _60
REMARK   27  A    between atoms: _60  and  _61
REMARK   28  A    between atoms: _60  and  _63
REMARK   29  A    between atoms: _63  and  _64
REMARK   30  A    between atoms: _66  and  _68
REMARK   31  A    between atoms: _68  and  _69
REMARK   32  A    between atoms: _68  and  _71
REMARK   33  A    between atoms: _71  and  _72
REMARK   34  A    between atoms: _78  and  _80
REMARK   35  A    between atoms: _80  and  _81
REMARK   36  A    between atoms: _80  and  _83
REMARK   37  A    between atoms: _86  and  _88
REMARK   38  A    between atoms: _88  and  _89
REMARK   39  A    between atoms: _88  and  _91
REMARK   40  A    between atoms: _91  and  _92
REMARK   41  A    between atoms: _102  and  _104
REMARK   42  A    between atoms: _104  and  _105
REMARK   43  A    between atoms: _104  and  _107
REMARK   44  A    between atoms: _107  and  _108
REMARK   45  A    between atoms: _111  and  _113
REMARK   46  A    between atoms: _113  and  _114
REMARK   47  A    between atoms: _113  and  _116
REMARK   48  A    between atoms: _116  and  _117
REMARK   49  A    between atoms: _122  and  _123
REMARK   50  A    between atoms: _125  and  _127
REMARK   51  A    between atoms: _127  and  _128
REMARK   52  A    between atoms: _131  and  _133
REMARK   53  A    between atoms: _133  and  _134
REMARK   54  A    between atoms: _133  and  _136
REMARK   55  A    between atoms: _139  and  _141
REMARK   56  A    between atoms: _141  and  _142
REMARK   57  A    between atoms: _141  and  _144
REMARK   58  A    between atoms: _146  and  _148
REMARK   59  A    between atoms: _148  and  _149
REMARK   60  A    between atoms: _148  and  _151
REMARK   61  A    between atoms: _151  and  _152
REMARK   62  A    between atoms: _152  and  _153
REMARK   63  A    between atoms: _153  and  _154
REMARK   64  A    between atoms: _163  and  _165
REMARK   65  A    between atoms: _165  and  _166
REMARK   66  A    between atoms: _165  and  _168
REMARK   67  A    between atoms: _168  and  _169
REMARK   68  A    between atoms: _169  and  _170
REMARK   69  A    between atoms: _170  and  _171
REMARK   70  A    between atoms: _171  and  _172
REMARK   71  A    between atoms: _176  and  _178
REMARK   72  A    between atoms: _178  and  _179
REMARK   73  A    between atoms: _178  and  _181
REMARK   74  A    between atoms: _181  and  _182
REMARK   75  A    between atoms: _185  and  _187
REMARK   76  A    between atoms: _187  and  _188
REMARK   77  A    between atoms: _187  and  _190
REMARK   78  A    between atoms: _190  and  _191
REMARK   79  A    between atoms: _194  and  _196
REMARK   80  A    between atoms: _196  and  _197
REMARK   81  A    between atoms: _196  and  _199
REMARK   82  A    between atoms: _199  and  _200
REMARK   83  A    between atoms: _203  and  _205
REMARK   84  A    between atoms: _205  and  _206
REMARK   85  A    between atoms: _205  and  _208
REMARK   86  A    between atoms: _208  and  _209
REMARK   87  A    between atoms: _212  and  _214
REMARK   88  A    between atoms: _214  and  _215
REMARK   89  A    between atoms: _214  and  _217
REMARK   90  A    between atoms: _219  and  _221
REMARK   91  A    between atoms: _221  and  _222
REMARK   92  A    between atoms: _221  and  _224
REMARK   93  A    between atoms: _227  and  _229
REMARK   94  A    between atoms: _229  and  _230
REMARK   95  A    between atoms: _233  and  _235
REMARK   96  A    between atoms: _235  and  _236
REMARK   97  A    between atoms: _238  and  _240
REMARK   98  A    between atoms: _240  and  _241
REMARK   99  A    between atoms: _240  and  _243
REMARK  100  A    between atoms: _243  and  _244
REMARK  101  A    between atoms: _247  and  _249
REMARK  102  A    between atoms: _249  and  _250
REMARK  103  A    between atoms: _249  and  _252
REMARK  104  A    between atoms: _255  and  _257
REMARK  105  A    between atoms: _257  and  _258
REMARK  106  A    between atoms: _260  and  _262
REMARK  107  A    between atoms: _262  and  _263
REMARK  108  A    between atoms: _262  and  _265
REMARK  109  A    between atoms: _265  and  _266
REMARK  110  A    between atoms: _266  and  _267
REMARK  111  A    between atoms: _270  and  _272
REMARK  112  A    between atoms: _272  and  _273
REMARK  113  A    between atoms: _272  and  _275
REMARK  114  A    between atoms: _278  and  _280
REMARK  115  A    between atoms: _280  and  _281
REMARK  116  A    between atoms: _280  and  _283
REMARK  117  A    between atoms: _283  and  _284
REMARK  118  A    between atoms: _287  and  _289
REMARK  119  A    between atoms: _289  and  _290
REMARK  120  A    between atoms: _289  and  _292
REMARK  121  A    between atoms: _292  and  _293
REMARK  122  A    between atoms: _296  and  _298
REMARK  123  A    between atoms: _298  and  _299
REMARK  124  A    between atoms: _298  and  _301
REMARK  125  A    between atoms: _301  and  _302
REMARK  126  A    between atoms: _305  and  _307
REMARK  127  A    between atoms: _307  and  _308
REMARK  128  A    between atoms: _307  and  _310
REMARK  129  A    between atoms: _310  and  _311
REMARK  130  A    between atoms: _314  and  _316
REMARK  131  A    between atoms: _316  and  _317
REMARK  132  A    between atoms: _316  and  _319
REMARK  133  A    between atoms: _319  and  _320
REMARK  134  A    between atoms: _325  and  _326
REMARK  135  A    between atoms: _328  and  _330
REMARK  136  A    between atoms: _330  and  _331
REMARK  137  A    between atoms: _330  and  _333
REMARK  138  A    between atoms: _336  and  _338
REMARK  139  A    between atoms: _338  and  _339
REMARK  140  A    between atoms: _342  and  _344
REMARK  141  A    between atoms: _344  and  _345
REMARK  142  A    between atoms: _344  and  _347
REMARK  143  A    between atoms: _347  and  _348
REMARK  144  A    between atoms: _348  and  _349
REMARK  145  A    between atoms: _349  and  _350
REMARK  146  A    between atoms: _359  and  _361
REMARK  147  A    between atoms: _361  and  _362
REMARK  148  A    between atoms: _361  and  _364
REMARK  149  A    between atoms: _364  and  _365
REMARK  150  A    between atoms: _365  and  _366
REMARK  151  A    between atoms: _366  and  _367
REMARK  152  A    between atoms: _376  and  _378
REMARK  153  A    between atoms: _378  and  _379
REMARK  154  A    between atoms: _378  and  _381
REMARK  155  A    between atoms: _381  and  _382
REMARK  156  A    between atoms: _385  and  _387
REMARK  157  A    between atoms: _387  and  _388
REMARK  158  A    between atoms: _390  and  _392
REMARK  159  A    between atoms: _392  and  _393
REMARK  160  A    between atoms: _392  and  _395
REMARK  161  A    between atoms: _395  and  _396
REMARK  162  A    between atoms: _396  and  _397
REMARK  163  A    between atoms: _400  and  _402
REMARK  164  A    between atoms: _402  and  _403
REMARK  165  A    between atoms: _402  and  _405
REMARK  166  A    between atoms: _405  and  _406
REMARK  167  A    between atoms: _408  and  _410
REMARK  168  A    between atoms: _410  and  _411
REMARK  169  A    between atoms: _410  and  _413
REMARK  170  A    between atoms: _413  and  _414
REMARK  171  A    between atoms: _417  and  _419
REMARK  172  A    between atoms: _419  and  _420
REMARK  173  A    between atoms: _419  and  _422
REMARK  174  A    between atoms: _422  and  _423
REMARK  175  A    between atoms: _423  and  _424
REMARK  176  A    between atoms: _429  and  _431
REMARK  177  A    between atoms: _431  and  _432
REMARK  178  A    between atoms: _431  and  _434
REMARK  179  A    between atoms: _434  and  _435
REMARK  180  A    between atoms: _438  and  _440
REMARK  181  A    between atoms: _440  and  _441
REMARK  182  A    between atoms: _440  and  _443
REMARK  183  A    between atoms: _443  and  _444
REMARK  184  A    between atoms: _449  and  _451
REMARK  185  A    between atoms: _451  and  _452
REMARK  186  A    between atoms: _451  and  _454
REMARK  187  A    between atoms: _457  and  _459
REMARK  188  A    between atoms: _459  and  _460
REMARK  189  A    between atoms: _459  and  _462
REMARK  190  A    between atoms: _462  and  _463
REMARK  191  A    between atoms: _466  and  _468
REMARK  192  A    between atoms: _468  and  _469
REMARK  193  A    between atoms: _468  and  _471
REMARK  194  A    between atoms: _474  and  _476
REMARK  195  A    between atoms: _476  and  _477
REMARK  196  A    between atoms: _476  and  _479
REMARK  197  A    between atoms: _479  and  _480
REMARK  198  A    between atoms: _486  and  _488
REMARK  199  A    between atoms: _488  and  _489
REMARK  200  A    between atoms: _492  and  _494
REMARK  201  A    between atoms: _494  and  _495
REMARK  202  A    between atoms: _494  and  _497
REMARK  203  A    between atoms: _497  and  _498
REMARK  204  A    between atoms: _501  and  _503
REMARK  205  A    between atoms: _503  and  _504
REMARK  206  A    between atoms: _503  and  _506
REMARK  207  A    between atoms: _506  and  _507
REMARK  208  A    between atoms: _510  and  _512
REMARK  209  A    between atoms: _512  and  _513
REMARK  210  A    between atoms: _512  and  _515
REMARK  211  A    between atoms: _515  and  _516
REMARK  212  A    between atoms: _516  and  _517
REMARK  213  A    between atoms: _520  and  _522
REMARK  214  A    between atoms: _522  and  _523
REMARK  215  A    between atoms: _526  and  _528
REMARK  216  A    between atoms: _528  and  _529
REMARK  217  A    between atoms: _532  and  _534
REMARK  218  A    between atoms: _534  and  _535
REMARK  219  A    between atoms: _534  and  _537
REMARK  220  A    between atoms: _537  and  _538
REMARK  221  A    between atoms: _543  and  _544
REMARK                            x       y       z     vdW  Elec       q    Type
REMARK                         _______ _______ _______ _____ _____    ______ ____
ROOT
ATOM      1  CB  PHE A   1      58.915  18.265  61.831  0.00  0.00    +0.051 C 
ENDROOT
BRANCH   1   2
ATOM      2  CG  PHE A   1      59.079  18.639  60.385  0.00  0.00    -0.020 A 
ATOM      3  CD2 PHE A   1      58.931  19.953  59.980  0.00  0.00    -0.004 A 
ATOM      4  CE2 PHE A   1      59.097  20.310  58.652  0.00  0.00    -0.000 A 
ATOM      5  CZ  PHE A   1      59.428  19.363  57.710  0.00  0.00    -0.000 A 
ATOM      6  CE1 PHE A   1      59.569  18.058  58.087  0.00  0.00    -0.000 A 
ATOM      7  CD1 PHE A   1      59.392  17.689  59.422  0.00  0.00    -0.004 A 
ENDBRANCH   1   2
BRANCH   1   8
ATOM      8  CA  PHE A   1      60.125  18.651  62.674  0.00  0.00    +0.137 C 
BRANCH   8   9
ATOM      9  N   PHE A   1      61.278  17.811  62.368  0.00  0.00    -0.239 NA
ATOM     10  H   PHE A   1      61.148  16.883  61.917  0.00  0.00    +0.142 HD
ENDBRANCH   8   9
BRANCH   8  11
ATOM     11  C   PHE A   1      59.801  18.736  64.154  0.00  0.00    +0.224 C 
ATOM     12  O   PHE A   1      59.191  19.708  64.588  0.00  0.00    -0.287 OA
ENDBRANCH   8  11
ENDBRANCH   1   8
TORSDOF 4
REMARK  Name = ../refined-set-2016/3acx/3acx_pocket.pdb
REMARK  221 active torsions:
REMARK  status: ('A' for Active; 'I' for Inactive)
REMARK    1  A    between atoms: _1  and  _3
REMARK    2  A    between atoms: _3  and  _4
REMARK    3  A    between atoms: _3  and  _6
REMARK    4  A    between atoms: _6  and  _7
REMARK    5  A    between atoms: _10  and  _12
REMARK    6  A    between atoms: _12  and  _13
REMARK    7  A    between atoms: _12  and  _15
REMARK    8  A    between atoms: _15  and  _16
REMARK    9  A    between atoms: _16  and  _17
REMARK   10  A    between atoms: _19  and  _21
REMARK   11  A    between atoms: _21  and  _22
REMARK   12  A    between atoms: _21  and  _24
REMARK   13  A    between atoms: _24  and  _25
REMARK   14  A    between atoms: _30  and  _32
REMARK   15  A    between atoms: _32  and  _33
REMARK   16  A    between atoms: _32  and  _35
REMARK   17  A    between atoms: _35  and  _36
REMARK   18  A    between atoms: _38  and  _40
REMARK   19  A    between atoms: _40  and  _41
REMARK   20  A    between atoms: _40  and  _43
REMARK   21  A    between atoms: _43  and  _44
REMARK   22  A    between atoms: _46  and  _48
REMARK   23  A    between atoms: _48  and  _49
REMARK   24  A    between atoms: _48  and  _51
REMARK   25  A    between atoms: _51  and  _52
REMARK   26  A    between atoms: _58  and  _60
REMARK   27  A    between atoms: _60  and  _61
REMARK   28  A    between atoms: _60  and  _63
REMARK   29  A    between atoms: _63  and  _64
REMARK   30  A    between atoms: _66  and  _68
REMARK   31  A    between atoms: _68  and  _69
REMARK   32  A    between atoms: _68  and  _71
REMARK   33  A    between atoms: _71  and  _72
REMARK   34  A    between atoms: _78  and  _80
REMARK   35  A    between atoms: _80  and  _81
REMARK   36  A    between atoms: _80  and  _83
REMARK   37  A    between atoms: _86  and  _88
REMARK   38  A    between atoms: _88  and  _89
REMARK   39  A    between atoms: _88  and  _91
REMARK   40  A    between atoms: _91  and  _92
REMARK   41  A    between atoms: _102  and  _104
REMARK   42  A    between atoms: _104  and  _105
REMARK   43  A    between atoms: _104  and  _107
REMARK   44  A    between atoms: _107  and  _108
REMARK   45  A    between atoms: _111  and  _113
REMARK   46  A    between atoms: _113  and  _114
REMARK   47  A    between atoms: _113  and  _116
REMARK   48  A    between atoms: _116  and  _117
REMARK   49  A    between atoms: _122  and  _123
REMARK   50  A    between atoms: _125  and  _127
REMARK   51  A    between atoms: _127  and  _128
REMARK   52  A    between atoms: _131  and  _133
REMARK   53  A    between atoms: _133  and  _134
REMARK   54  A    between atoms: _133  and  _136
REMARK   55  A    between atoms: _139  and  _141
REMARK   56  A    between atoms: _141  and  _142
REMARK   57  A    between atoms: _141  and  _144
REMARK   58  A    between atoms: _146  and  _148
REMARK   59  A    between atoms: _148  and  _149
REMARK   60  A    between atoms: _148  and  _151
REMARK   61  A    between atoms: _151  and  _152
REMARK   62  A    between atoms: _152  and  _153
REMARK   63  A    between atoms: _153  and  _154
REMARK   64  A    between atoms: _163  and  _165
REMARK   65  A    between atoms: _165  and  _166
REMARK   66  A    between atoms: _165  and  _168
REMARK   67  A    between atoms: _168  and  _169
REMARK   68  A    between atoms: _169  and  _170
REMARK   69  A    between atoms: _170  and  _171
REMARK   70  A    between atoms: _171  and  _172
REMARK   71  A    between atoms: _176  and  _178
REMARK   72  A    between atoms: _178  and  _179
REMARK   73  A    between atoms: _178  and  _181
REMARK   74  A    between atoms: _181  and  _182
REMARK   75  A    between atoms: _185  and  _187
REMARK   76  A    between atoms: _187  and  _188
REMARK   77  A    between atoms: _187  and  _190
REMARK   78  A    between atoms: _190  and  _191
REMARK   79  A    between atoms: _194  and  _196
REMARK   80  A    between atoms: _196  and  _197
REMARK   81  A    between atoms: _196  and  _199
REMARK   82  A    between atoms: _199  and  _200
REMARK   83  A    between atoms: _203  and  _205
REMARK   84  A    between atoms: _205  and  _206
REMARK   85  A    between atoms: _205  and  _208
REMARK   86  A    between atoms: _208  and  _209
REMARK   87  A    between atoms: _212  and  _214
REMARK   88  A    between atoms: _214  and  _215
REMARK   89  A    between atoms: _214  and  _217
REMARK   90  A    between atoms: _219  and  _221
REMARK   91  A    between atoms: _221  and  _222
REMARK   92  A    between atoms: _221  and  _224
REMARK   93  A    between atoms: _227  and  _229
REMARK   94  A    between atoms: _229  and  _230
REMARK   95  A    between atoms: _233  and  _235
REMARK   96  A    between atoms: _235  and  _236
REMARK   97  A    between atoms: _238  and  _240
REMARK   98  A    between atoms: _240  and  _241
REMARK   99  A    between atoms: _240  and  _243
REMARK  100  A    between atoms: _243  and  _244
REMARK  101  A    between atoms: _247  and  _249
REMARK  102  A    between atoms: _249  and  _250
REMARK  103  A    between atoms: _249  and  _252
REMARK  104  A    between atoms: _255  and  _257
REMARK  105  A    between atoms: _257  and  _258
REMARK  106  A    between atoms: _260  and  _262
REMARK  107  A    between atoms: _262  and  _263
REMARK  108  A    between atoms: _262  and  _265
REMARK  109  A    between atoms: _265  and  _266
REMARK  110  A    between atoms: _266  and  _267
REMARK  111  A    between atoms: _270  and  _272
REMARK  112  A    between atoms: _272  and  _273
REMARK  113  A    between atoms: _272  and  _275
REMARK  114  A    between atoms: _278  and  _280
REMARK  115  A    between atoms: _280  and  _281
REMARK  116  A    between atoms: _280  and  _283
REMARK  117  A    between atoms: _283  and  _284
REMARK  118  A    between atoms: _287  and  _289
REMARK  119  A    between atoms: _289  and  _290
REMARK  120  A    between atoms: _289  and  _292
REMARK  121  A    between atoms: _292  and  _293
REMARK  122  A    between atoms: _296  and  _298
REMARK  123  A    between atoms: _298  and  _299
REMARK  124  A    between atoms: _298  and  _301
REMARK  125  A    between atoms: _301  and  _302
REMARK  126  A    between atoms: _305  and  _307
REMARK  127  A    between atoms: _307  and  _308
REMARK  128  A    between atoms: _307  and  _310
REMARK  129  A    between atoms: _310  and  _311
REMARK  130  A    between atoms: _314  and  _316
REMARK  131  A    between atoms: _316  and  _317
REMARK  132  A    between atoms: _316  and  _319
REMARK  133  A    between atoms: _319  and  _320
REMARK  134  A    between atoms: _325  and  _326
REMARK  135  A    between atoms: _328  and  _330
REMARK  136  A    between atoms: _330  and  _331
REMARK  137  A    between atoms: _330  and  _333
REMARK  138  A    between atoms: _336  and  _338
REMARK  139  A    between atoms: _338  and  _339
REMARK  140  A    between atoms: _342  and  _344
REMARK  141  A    between atoms: _344  and  _345
REMARK  142  A    between atoms: _344  and  _347
REMARK  143  A    between atoms: _347  and  _348
REMARK  144  A    between atoms: _348  and  _349
REMARK  145  A    between atoms: _349  and  _350
REMARK  146  A    between atoms: _359  and  _361
REMARK  147  A    between atoms: _361  and  _362
REMARK  148  A    between atoms: _361  and  _364
REMARK  149  A    between atoms: _364  and  _365
REMARK  150  A    between atoms: _365  and  _366
REMARK  151  A    between atoms: _366  and  _367
REMARK  152  A    between atoms: _376  and  _378
REMARK  153  A    between atoms: _378  and  _379
REMARK  154  A    between atoms: _378  and  _381
REMARK  155  A    between atoms: _381  and  _382
REMARK  156  A    between atoms: _385  and  _387
REMARK  157  A    between atoms: _387  and  _388
REMARK  158  A    between atoms: _390  and  _392
REMARK  159  A    between atoms: _392  and  _393
REMARK  160  A    between atoms: _392  and  _395
REMARK  161  A    between atoms: _395  and  _396
REMARK  162  A    between atoms: _396  and  _397
REMARK  163  A    between atoms: _400  and  _402
REMARK  164  A    between atoms: _402  and  _403
REMARK  165  A    between atoms: _402  and  _405
REMARK  166  A    between atoms: _405  and  _406
REMARK  167  A    between atoms: _408  and  _410
REMARK  168  A    between atoms: _410  and  _411
REMARK  169  A    between atoms: _410  and  _413
REMARK  170  A    between atoms: _413  and  _414
REMARK  171  A    between atoms: _417  and  _419
REMARK  172  A    between atoms: _419  and  _420
REMARK  173  A    between atoms: _419  and  _422
REMARK  174  A    between atoms: _422  and  _423
REMARK  175  A    between atoms: _423  and  _424
REMARK  176  A    between atoms: _429  and  _431
REMARK  177  A    between atoms: _431  and  _432
REMARK  178  A    between atoms: _431  and  _434
REMARK  179  A    between atoms: _434  and  _435
REMARK  180  A    between atoms: _438  and  _440
REMARK  181  A    between atoms: _440  and  _441
REMARK  182  A    between atoms: _440  and  _443
REMARK  183  A    between atoms: _443  and  _444
REMARK  184  A    between atoms: _449  and  _451
REMARK  185  A    between atoms: _451  and  _452
REMARK  186  A    between atoms: _451  and  _454
REMARK  187  A    between atoms: _457  and  _459
REMARK  188  A    between atoms: _459  and  _460
REMARK  189  A    between atoms: _459  and  _462
REMARK  190  A    between atoms: _462  and  _463
REMARK  191  A    between atoms: _466  and  _468
REMARK  192  A    between atoms: _468  and  _469
REMARK  193  A    between atoms: _468  and  _471
REMARK  194  A    between atoms: _474  and  _476
REMARK  195  A    between atoms: _476  and  _477
REMARK  196  A    between atoms: _476  and  _479
REMARK  197  A    between atoms: _479  and  _480
REMARK  198  A    between atoms: _486  and  _488
REMARK  199  A    between atoms: _488  and  _489
REMARK  200  A    between atoms: _492  and  _494
REMARK  201  A    between atoms: _494  and  _495
REMARK  202  A    between atoms: _494  and  _497
REMARK  203  A    between atoms: _497  and  _498
REMARK  204  A    between atoms: _501  and  _503
REMARK  205  A    between atoms: _503  and  _504
REMARK  206  A    between atoms: _503  and  _506
REMARK  207  A    between atoms: _506  and  _507
REMARK  208  A    between atoms: _510  and  _512
REMARK  209  A    between atoms: _512  and  _513
REMARK  210  A    between atoms: _512  and  _515
REMARK  211  A    between atoms: _515  and  _516
REMARK  212  A    between atoms: _516  and  _517
REMARK  213  A    between atoms: _520  and  _522
REMARK  214  A    between atoms: _522  and  _523
REMARK  215  A    between atoms: _526  and  _528
REMARK  216  A    between atoms: _528  and  _529
REMARK  217  A    between atoms: _532  and  _534
REMARK  218  A    between atoms: _534  and  _535
REMARK  219  A    between atoms: _534  and  _537
REMARK  220  A    between atoms: _537  and  _538
REMARK  221  A    between atoms: _543  and  _544
REMARK                            x       y       z     vdW  Elec       q    Type
REMARK                         _______ _______ _______ _____ _____    ______ ____
ROOT
ATOM      1  CA  TRP A   2      52.090  15.935  63.761  0.00  0.00    +0.141 C 
ENDROOT
BRANCH   1   3
ATOM      2  C   VAL A   1      52.413  17.612  62.066  0.00  0.00    +0.238 C 
ATOM      3  N   TRP A   2      52.443  17.288  63.354  0.00  0.00    -0.298 N 
ATOM      4  H   TRP A   2      52.716  17.995  64.066  0.00  0.00    +0.150 HD
ATOM      5  O   VAL A   1      52.093  16.819  61.185  0.00  0.00    -0.274 OA
BRANCH   2   6
ATOM      6  CA  VAL A   1      52.780  19.044  61.695  0.00  0.00    +0.145 C 
BRANCH   6   7
ATOM      7  CB  VAL A   1      54.305  19.249  61.641  0.00  0.00    +0.025 C 
ATOM      8  CG2 VAL A   1      54.636  20.628  61.082  0.00  0.00    +0.002 C 
ATOM      9  CG1 VAL A   1      54.961  18.176  60.810  0.00  0.00    +0.002 C 
ENDBRANCH   6   7
BRANCH   6  10
ATOM     10  N   VAL A   1      52.134  20.005  62.590  0.00  0.00    -0.238 NA
ATOM     11  H   VAL A   1      52.715  20.663  63.148  0.00  0.00    +0.142 HD
ENDBRANCH   6  10
ENDBRANCH   2   6
ENDBRANCH   1   3
BRANCH   1  12
ATOM     12  C   TRP A   2      50.687  15.565  63.300  0.00  0.00    +0.227 C 
ATOM     13  O   TRP A   2      50.478  14.457  62.807  0.00  0.00    -0.286 OA
ENDBRANCH   1  12
BRANCH   1  14
ATOM     14  CB  TRP A   2      52.103  15.782  65.281  0.00  0.00    +0.056 C 
BRANCH  14  15
ATOM     15  CG  TRP A   2      53.414  16.051  65.957  0.00  0.00    -0.002 A 
ATOM     16  CD2 TRP A   2      53.579  16.320  67.350  0.00  0.00    +0.013 A 
ATOM     17  CE3 TRP A   2      52.683  16.432  68.425  0.00  0.00    +0.001 A 
ATOM     18  CZ3 TRP A   2      53.187  16.720  69.674  0.00  0.00    +0.000 A 
ATOM     19  CH2 TRP A   2      54.569  16.892  69.880  0.00  0.00    +0.001 A 
ATOM     20  CZ2 TRP A   2      55.471  16.790  68.857  0.00  0.00    +0.017 A 
ATOM     21  CE2 TRP A   2      54.961  16.504  67.586  0.00  0.00    +0.056 A 
ATOM     22  NE1 TRP A   2      55.610  16.352  66.390  0.00  0.00    -0.352 N 
ATOM     23  HE1 TRP A   2      56.635  16.442  66.241  0.00  0.00    +0.166 HD
ATOM     24  CD1 TRP A   2      54.671  16.058  65.409  0.00  0.00    +0.068 A 
ENDBRANCH  14  15
ENDBRANCH   1  14
TORSDOF 7
REMARK  Name = ../refined-set-2016/3acx/3acx_pocket.pdb
REMARK  221 active torsions:
REMARK  status: ('A' for Active; 'I' for Inactive)
REMARK    1  A    between atoms: _1  and  _3
REMARK    2  A    between atoms: _3  and  _4
REMARK    3  A    between atoms: _3  and  _6
REMARK    4  A    between atoms: _6  and  _7
REMARK    5  A    between atoms: _10  and  _12
REMARK    6  A    between atoms: _12  and  _13
REMARK    7  A    between atoms: _12  and  _15
REMARK    8  A    between atoms: _15  and  _16
REMARK    9  A    between atoms: _16  and  _17
REMARK   10  A    between atoms: _19  and  _21
REMARK   11  A    between atoms: _21  and  _22
REMARK   12  A    between atoms: _21  and  _24
REMARK   13  A    between atoms: _24  and  _25
REMARK   14  A    between atoms: _30  and  _32
REMARK   15  A    between atoms: _32  and  _33
REMARK   16  A    between atoms: _32  and  _35
REMARK   17  A    between atoms: _35  and  _36
REMARK   18  A    between atoms: _38  and  _40
REMARK   19  A    between atoms: _40  and  _41
REMARK   20  A    between atoms: _40  and  _43
REMARK   21  A    between atoms: _43  and  _44
REMARK   22  A    between atoms: _46  and  _48
REMARK   23  A    between atoms: _48  and  _49
REMARK   24  A    between atoms: _48  and  _51
REMARK   25  A    between atoms: _51  and  _52
REMARK   26  A    between atoms: _58  and  _60
REMARK   27  A    between atoms: _60  and  _61
REMARK   28  A    between atoms: _60  and  _63
REMARK   29  A    between atoms: _63  and  _64
REMARK   30  A    between atoms: _66  and  _68
REMARK   31  A    between atoms: _68  and  _69
REMARK   32  A    between atoms: _68  and  _71
REMARK   33  A    between atoms: _71  and  _72
REMARK   34  A    between atoms: _78  and  _80
REMARK   35  A    between atoms: _80  and  _81
REMARK   36  A    between atoms: _80  and  _83
REMARK   37  A    between atoms: _86  and  _88
REMARK   38  A    between atoms: _88  and  _89
REMARK   39  A    between atoms: _88  and  _91
REMARK   40  A    between atoms: _91  and  _92
REMARK   41  A    between atoms: _102  and  _104
REMARK   42  A    between atoms: _104  and  _105
REMARK   43  A    between atoms: _104  and  _107
REMARK   44  A    between atoms: _107  and  _108
REMARK   45  A    between atoms: _111  and  _113
REMARK   46  A    between atoms: _113  and  _114
REMARK   47  A    between atoms: _113  and  _116
REMARK   48  A    between atoms: _116  and  _117
REMARK   49  A    between atoms: _122  and  _123
REMARK   50  A    between atoms: _125  and  _127
REMARK   51  A    between atoms: _127  and  _128
REMARK   52  A    between atoms: _131  and  _133
REMARK   53  A    between atoms: _133  and  _134
REMARK   54  A    between atoms: _133  and  _136
REMARK   55  A    between atoms: _139  and  _141
REMARK   56  A    between atoms: _141  and  _142
REMARK   57  A    between atoms: _141  and  _144
REMARK   58  A    between atoms: _146  and  _148
REMARK   59  A    between atoms: _148  and  _149
REMARK   60  A    between atoms: _148  and  _151
REMARK   61  A    between atoms: _151  and  _152
REMARK   62  A    between atoms: _152  and  _153
REMARK   63  A    between atoms: _153  and  _154
REMARK   64  A    between atoms: _163  and  _165
REMARK   65  A    between atoms: _165  and  _166
REMARK   66  A    between atoms: _165  and  _168
REMARK   67  A    between atoms: _168  and  _169
REMARK   68  A    between atoms: _169  and  _170
REMARK   69  A    between atoms: _170  and  _171
REMARK   70  A    between atoms: _171  and  _172
REMARK   71  A    between atoms: _176  and  _178
REMARK   72  A    between atoms: _178  and  _179
REMARK   73  A    between atoms: _178  and  _181
REMARK   74  A    between atoms: _181  and  _182
REMARK   75  A    between atoms: _185  and  _187
REMARK   76  A    between atoms: _187  and  _188
REMARK   77  A    between atoms: _187  and  _190
REMARK   78  A    between atoms: _190  and  _191
REMARK   79  A    between atoms: _194  and  _196
REMARK   80  A    between atoms: _196  and  _197
REMARK   81  A    between atoms: _196  and  _199
REMARK   82  A    between atoms: _199  and  _200
REMARK   83  A    between atoms: _203  and  _205
REMARK   84  A    between atoms: _205  and  _206
REMARK   85  A    between atoms: _205  and  _208
REMARK   86  A    between atoms: _208  and  _209
REMARK   87  A    between atoms: _212  and  _214
REMARK   88  A    between atoms: _214  and  _215
REMARK   89  A    between atoms: _214  and  _217
REMARK   90  A    between atoms: _219  and  _221
REMARK   91  A    between atoms: _221  and  _222
REMARK   92  A    between atoms: _221  and  _224
REMARK   93  A    between atoms: _227  and  _229
REMARK   94  A    between atoms: _229  and  _230
REMARK   95  A    between atoms: _233  and  _235
REMARK   96  A    between atoms: _235  and  _236
REMARK   97  A    between atoms: _238  and  _240
REMARK   98  A    between atoms: _240  and  _241
REMARK   99  A    between atoms: _240  and  _243
REMARK  100  A    between atoms: _243  and  _244
REMARK  101  A    between atoms: _247  and  _249
REMARK  102  A    between atoms: _249  and  _250
REMARK  103  A    between atoms: _249  and  _252
REMARK  104  A    between atoms: _255  and  _257
REMARK  105  A    between atoms: _257  and  _258
REMARK  106  A    between atoms: _260  and  _262
REMARK  107  A    between atoms: _262  and  _263
REMARK  108  A    between atoms: _262  and  _265
REMARK  109  A    between atoms: _265  and  _266
REMARK  110  A    between atoms: _266  and  _267
REMARK  111  A    between atoms: _270  and  _272
REMARK  112  A    between atoms: _272  and  _273
REMARK  113  A    between atoms: _272  and  _275
REMARK  114  A    between atoms: _278  and  _280
REMARK  115  A    between atoms: _280  and  _281
REMARK  116  A    between atoms: _280  and  _283
REMARK  117  A    between atoms: _283  and  _284
REMARK  118  A    between atoms: _287  and  _289
REMARK  119  A    between atoms: _289  and  _290
REMARK  120  A    between atoms: _289  and  _292
REMARK  121  A    between atoms: _292  and  _293
REMARK  122  A    between atoms: _296  and  _298
REMARK  123  A    between atoms: _298  and  _299
REMARK  124  A    between atoms: _298  and  _301
REMARK  125  A    between atoms: _301  and  _302
REMARK  126  A    between atoms: _305  and  _307
REMARK  127  A    between atoms: _307  and  _308
REMARK  128  A    between atoms: _307  and  _310
REMARK  129  A    between atoms: _310  and  _311
REMARK  130  A    between atoms: _314  and  _316
REMARK  131  A    between atoms: _316  and  _317
REMARK  132  A    between atoms: _316  and  _319
REMARK  133  A    between atoms: _319  and  _320
REMARK  134  A    between atoms: _325  and  _326
REMARK  135  A    between atoms: _328  and  _330
REMARK  136  A    between atoms: _330  and  _331
REMARK  137  A    between atoms: _330  and  _333
REMARK  138  A    between atoms: _336  and  _338
REMARK  139  A    between atoms: _338  and  _339
REMARK  140  A    between atoms: _342  and  _344
REMARK  141  A    between atoms: _344  and  _345
REMARK  142  A    between atoms: _344  and  _347
REMARK  143  A    between atoms: _347  and  _348
REMARK  144  A    between atoms: _348  and  _349
REMARK  145  A    between atoms: _349  and  _350
REMARK  146  A    between atoms: _359  and  _361
REMARK  147  A    between atoms: _361  and  _362
REMARK  148  A    between atoms: _361  and  _364
REMARK  149  A    between atoms: _364  and  _365
REMARK  150  A    between atoms: _365  and  _366
REMARK  151  A    between atoms: _366  and  _367
REMARK  152  A    between atoms: _376  and  _378
REMARK  153  A    between atoms: _378  and  _379
REMARK  154  A    between atoms: _378  and  _381
REMARK  155  A    between atoms: _381  and  _382
REMARK  156  A    between atoms: _385  and  _387
REMARK  157  A    between atoms: _387  and  _388
REMARK  158  A    between atoms: _390  and  _392
REMARK  159  A    between atoms: _392  and  _393
REMARK  160  A    between atoms: _392  and  _395
REMARK  161  A    between atoms: _395  and  _396
REMARK  162  A    between atoms: _396  and  _397
REMARK  163  A    between atoms: _400  and  _402
REMARK  164  A    between atoms: _402  and  _403
REMARK  165  A    between atoms: _402  and  _405
REMARK  166  A    between atoms: _405  and  _406
REMARK  167  A    between atoms: _408  and  _410
REMARK  168  A    between atoms: _410  and  _411
REMARK  169  A    between atoms: _410  and  _413
REMARK  170  A    between atoms: _413  and  _414
REMARK  171  A    between atoms: _417  and  _419
REMARK  172  A    between atoms: _419  and  _420
REMARK  173  A    between atoms: _419  and  _422
REMARK  174  A    between atoms: _422  and  _423
REMARK  175  A    between atoms: _423  and  _424
REMARK  176  A    between atoms: _429  and  _431
REMARK  177  A    between atoms: _431  and  _432
REMARK  178  A    between atoms: _431  and  _434
REMARK  179  A    between atoms: _434  and  _435
REMARK  180  A    between atoms: _438  and  _440
REMARK  181  A    between atoms: _440  and  _441
REMARK  182  A    between atoms: _440  and  _443
REMARK  183  A    between atoms: _443  and  _444
REMARK  184  A    between atoms: _449  and  _451
REMARK  185  A    between atoms: _451  and  _452
REMARK  186  A    between atoms: _451  and  _454
REMARK  187  A    between atoms: _457  and  _459
REMARK  188  A    between atoms: _459  and  _460
REMARK  189  A    between atoms: _459  and  _462
REMARK  190  A    between atoms: _462  and  _463
REMARK  191  A    between atoms: _466  and  _468
REMARK  192  A    between atoms: _468  and  _469
REMARK  193  A    between atoms: _468  and  _471
REMARK  194  A    between atoms: _474  and  _476
REMARK  195  A    between atoms: _476  and  _477
REMARK  196  A    between atoms: _476  and  _479
REMARK  197  A    between atoms: _479  and  _480
REMARK  198  A    between atoms: _486  and  _488
REMARK  199  A    between atoms: _488  and  _489
REMARK  200  A    between atoms: _492  and  _494
REMARK  201  A    between atoms: _494  and  _495
REMARK  202  A    between atoms: _494  and  _497
REMARK  203  A    between atoms: _497  and  _498
REMARK  204  A    between atoms: _501  and  _503
REMARK  205  A    between atoms: _503  and  _504
REMARK  206  A    between atoms: _503  and  _506
REMARK  207  A    between atoms: _506  and  _507
REMARK  208  A    between atoms: _510  and  _512
REMARK  209  A    between atoms: _512  and  _513
REMARK  210  A    between atoms: _512  and  _515
REMARK  211  A    between atoms: _515  and  _516
REMARK  212  A    between atoms: _516  and  _517
REMARK  213  A    between atoms: _520  and  _522
REMARK  214  A    between atoms: _522  and  _523
REMARK  215  A    between atoms: _526  and  _528
REMARK  216  A    between atoms: _528  and  _529
REMARK  217  A    between atoms: _532  and  _534
REMARK  218  A    between atoms: _534  and  _535
REMARK  219  A    between atoms: _534  and  _537
REMARK  220  A    between atoms: _537  and  _538
REMARK  221  A    between atoms: _543  and  _544
REMARK                            x       y       z     vdW  Elec       q    Type
REMARK                         _______ _______ _______ _____ _____    ______ ____
ROOT
ATOM      1  CA  ARG A   6      49.658   8.515  57.096  0.00  0.00    +0.149 C 
ENDROOT
BRANCH   1   3
ATOM      2  C   CYS A   5      48.610  10.243  55.745  0.00  0.00    +0.242 C 
ATOM      3  N   ARG A   6      49.225   9.892  56.875  0.00  0.00    -0.297 N 
ATOM      4  H   ARG A   6      49.399  10.608  57.609  0.00  0.00    +0.150 HD
ATOM      5  O   CYS A   5      48.403   9.444  54.821  0.00  0.00    -0.273 OA
BRANCH   2   6
ATOM      6  CA  CYS A   5      48.123  11.690  55.644  0.00  0.00    +0.160 C 
BRANCH   6   8
ATOM      7  C   VAL A   4      46.527  11.660  57.460  0.00  0.00    +0.241 C 
ATOM      8  N   CYS A   5      47.626  12.179  56.926  0.00  0.00    -0.296 N 
ATOM      9  H   CYS A   5      48.135  12.937  57.423  0.00  0.00    +0.150 HD
ATOM     10  O   VAL A   4      45.898  10.742  56.922  0.00  0.00    -0.273 OA
BRANCH   7  11
ATOM     11  CA  VAL A   4      46.043  12.293  58.763  0.00  0.00    +0.149 C 
BRANCH  11  14
ATOM     12  C   ALA A   3      47.874  11.366  60.076  0.00  0.00    +0.241 C 
ATOM     13  O   ALA A   3      47.579  10.220  59.728  0.00  0.00    -0.273 OA
ATOM     14  N   VAL A   4      47.176  12.435  59.687  0.00  0.00    -0.297 N 
ATOM     15  H   VAL A   4      47.437  13.377  60.041  0.00  0.00    +0.150 HD
BRANCH  12  16
ATOM     16  CA  ALA A   3      49.085  11.583  60.973  0.00  0.00    +0.149 C 
ATOM     17  CB  ALA A   3      48.644  11.713  62.424  0.00  0.00    +0.031 C 
BRANCH  16  19
ATOM     18  C   TYR A   2      50.398  12.801  59.343  0.00  0.00    +0.241 C 
ATOM     19  N   ALA A   3      49.848  12.754  60.550  0.00  0.00    -0.297 N 
ATOM     20  H   ALA A   3      49.961  13.558  61.200  0.00  0.00    +0.150 HD
ATOM     21  O   TYR A   2      50.256  11.886  58.533  0.00  0.00    -0.273 OA
BRANCH  18  22
ATOM     22  CA  TYR A   2      51.248  14.025  59.016  0.00  0.00    +0.153 C 
BRANCH  22  24
ATOM     23  C   ILE A   1      49.364  15.526  58.881  0.00  0.00    +0.238 C 
ATOM     24  N   TYR A   2      50.552  15.239  59.408  0.00  0.00    -0.297 N 
ATOM     25  H   TYR A   2      50.983  15.884  60.101  0.00  0.00    +0.150 HD
ATOM     26  O   ILE A   1      48.812  14.795  58.051  0.00  0.00    -0.274 OA
BRANCH  23  27
ATOM     27  CA  ILE A   1      48.698  16.805  59.374  0.00  0.00    +0.145 C 
BRANCH  27  28
ATOM     28  N   ILE A   1      48.792  16.895  60.829  0.00  0.00    -0.238 NA
ATOM     29  H   ILE A   1      49.327  17.675  61.262  0.00  0.00    +0.142 HD
ENDBRANCH  27  28
BRANCH  27  30
ATOM     30  CB  ILE A   1      49.304  18.068  58.732  0.00  0.00    +0.025 C 
ATOM     31  CG2 ILE A   1      49.520  17.877  57.226  0.00  0.00    +0.002 C 
BRANCH  30  32
ATOM     32  CG1 ILE A   1      48.389  19.269  59.023  0.00  0.00    +0.002 C 
ATOM     33  CD1 ILE A   1      49.057  20.612  58.898  0.00  0.00    +0.000 C 
ENDBRANCH  30  32
ENDBRANCH  27  30
ENDBRANCH  23  27
ENDBRANCH  22  24
BRANCH  22  34
ATOM     34  CB  TYR A   2      52.605  13.934  59.711  0.00  0.00    +0.055 C 
BRANCH  34  35
ATOM     35  CG  TYR A   2      53.469  12.879  59.106  0.00  0.00    -0.020 A 
ATOM     36  CD2 TYR A   2      53.304  11.528  59.398  0.00  0.00    -0.001 A 
ATOM     37  CE2 TYR A   2      54.113  10.561  58.759  0.00  0.00    +0.036 A 
ATOM     38  CZ  TYR A   2      55.082  10.977  57.860  0.00  0.00    +0.134 A 
ATOM     39  CE1 TYR A   2      55.260  12.309  57.574  0.00  0.00    +0.036 A 
ATOM     40  CD1 TYR A   2      54.464  13.243  58.198  0.00  0.00    -0.001 A 
BRANCH  38  41
ATOM     41  OH  TYR A   2      55.914  10.091  57.226  0.00  0.00    -0.506 OA
ATOM     42  HH  TYR A   2      55.373   9.457  56.691  0.00  0.00    +0.292 HD
ENDBRANCH  38  41
ENDBRANCH  34  35
ENDBRANCH  22  34
ENDBRANCH  18  22
ENDBRANCH  16  19
ENDBRANCH  12  16
ENDBRANCH  11  14
BRANCH  11  43
ATOM     43  CB  VAL A   4      45.368  13.667  58.442  0.00  0.00    +0.027 C 
ATOM     44  CG2 VAL A   4      44.731  14.247  59.675  0.00  0.00    +0.002 C 
ATOM     45  CG1 VAL A   4      44.365  13.585  57.283  0.00  0.00    +0.002 C 
ENDBRANCH  11  43
ENDBRANCH   7  11
ENDBRANCH   6   8
BRANCH   6  46
ATOM     46  CB  CYS A   5      49.213  12.625  55.114  0.00  0.00    +0.098 C 
ATOM     47  SG  CYS A   5      48.574  14.271  54.732  0.00  0.00    -0.080 S 
ENDBRANCH   6  46
ENDBRANCH   2   6
ENDBRANCH   1   3
BRANCH   1  48
ATOM     48  C   ARG A   6      48.460   7.571  57.176  0.00  0.00    +0.241 C 
ATOM     49  N   LYS A   7      47.420   8.001  57.881  0.00  0.00    -0.297 N 
ATOM     50  H   LYS A   7      47.472   8.918  58.369  0.00  0.00    +0.150 HD
ATOM     51  O   ARG A   6      48.459   6.474  56.608  0.00  0.00    -0.273 OA
BRANCH  49  52
ATOM     52  CA  LYS A   7      46.202   7.196  57.978  0.00  0.00    +0.149 C 
BRANCH  52  53
ATOM     53  C   LYS A   7      45.570   6.987  56.604  0.00  0.00    +0.241 C 
ATOM     54  O   LYS A   7      45.106   5.889  56.274  0.00  0.00    -0.273 OA
ATOM     55  N   ILE A   8      45.566   8.027  55.773  0.00  0.00    -0.297 N 
ATOM     56  H   ILE A   8      45.931   8.945  56.099  0.00  0.00    +0.150 HD
BRANCH  55  57
ATOM     57  CA  ILE A   8      45.059   7.899  54.416  0.00  0.00    +0.149 C 
BRANCH  57  58
ATOM     58  C   ILE A   8      45.886   6.864  53.659  0.00  0.00    +0.241 C 
ATOM     59  N   ASP A   9      47.206   6.889  53.850  0.00  0.00    -0.297 N 
ATOM     60  H   ASP A   9      47.612   7.545  54.547  0.00  0.00    +0.150 HD
ATOM     61  O   ILE A   8      45.335   6.040  52.926  0.00  0.00    -0.273 OA
BRANCH  59  62
ATOM     62  CA  ASP A   9      48.087   6.005  53.091  0.00  0.00    +0.160 C 
BRANCH  62  63
ATOM     63  C   ASP A   9      47.798   4.519  53.312  0.00  0.00    +0.241 C 
ATOM     64  N   ASP A  10      47.393   4.168  54.533  0.00  0.00    -0.298 N 
ATOM     65  H   ASP A  10      47.267   4.940  55.219  0.00  0.00    +0.150 HD
ATOM     66  O   ASP A   9      47.953   3.729  52.377  0.00  0.00    -0.273 OA
BRANCH  64  67
ATOM     67  CA  ASP A  10      47.105   2.812  55.015  0.00  0.00    +0.148 C 
BRANCH  67  68
ATOM     68  C   ASP A  10      45.633   2.408  54.895  0.00  0.00    +0.227 C 
ATOM     69  O   ASP A  10      45.254   1.274  55.203  0.00  0.00    -0.286 OA
ENDBRANCH  67  68
BRANCH  67  70
ATOM     70  CB  ASP A  10      47.486   2.709  56.512  0.00  0.00    +0.142 C 
BRANCH  70  71
ATOM     71  CG  ASP A  10      48.796   2.002  56.758  0.00  0.00    +0.367 C 
ATOM     72  OD2 ASP A  10      49.172   1.950  57.945  0.00  0.00    -0.246 OA
ATOM     73  OD1 ASP A  10      49.450   1.509  55.807  0.00  0.00    -0.246 OA
ENDBRANCH  70  71
ENDBRANCH  67  70
ENDBRANCH  64  67
ENDBRANCH  62  63
BRANCH  62  74
ATOM     74  CB  ASP A   9      49.555   6.311  53.400  0.00  0.00    +0.143 C 
BRANCH  74  75
ATOM     75  CG  ASP A   9      50.432   6.134  52.175  0.00  0.00    +0.367 C 
ATOM     76  OD2 ASP A   9      51.118   5.102  52.103  0.00  0.00    -0.246 OA
ATOM     77  OD1 ASP A   9      50.369   6.974  51.253  0.00  0.00    -0.246 OA
ENDBRANCH  74  75
ENDBRANCH  62  74
ENDBRANCH  59  62
ENDBRANCH  57  58
BRANCH  57  78
ATOM     78  CB  ILE A   8      45.066   9.269  53.714  0.00  0.00    +0.027 C 
ATOM     79  CG2 ILE A   8      44.994   9.132  52.190  0.00  0.00    +0.002 C 
BRANCH  78  80
ATOM     80  CG1 ILE A   8      43.961  10.162  54.290  0.00  0.00    +0.002 C 
ATOM     81  CD1 ILE A   8      44.095  11.625  53.954  0.00  0.00    +0.000 C 
ENDBRANCH  78  80
ENDBRANCH  57  78
ENDBRANCH  55  57
ENDBRANCH  52  53
BRANCH  52  82
ATOM     82  CB  LYS A   7      45.197   7.863  58.910  0.00  0.00    +0.029 C 
BRANCH  82  83
ATOM     83  CG  LYS A   7      44.078   6.947  59.408  0.00  0.00    +0.000 C 
BRANCH  83  84
ATOM     84  CD  LYS A   7      44.503   6.087  60.602  0.00  0.00    -0.024 C 
BRANCH  84  85
ATOM     85  CE  LYS A   7      43.399   5.128  60.984  0.00  0.00    -0.086 C 
BRANCH  85  86
ATOM     86  NZ  LYS A   7      43.589   4.771  62.406  0.00  0.00    +0.380 N 
ATOM     87  HZ1 LYS A   7      43.540   5.632  62.988  0.00  0.00    -0.089 HD
ATOM     88  HZ2 LYS A   7      42.842   4.110  62.699  0.00  0.00    -0.089 HD
ATOM     89  HZ3 LYS A   7      44.519   4.321  62.528  0.00  0.00    -0.089 HD
ENDBRANCH  85  86
ENDBRANCH  84  85
ENDBRANCH  83  84
ENDBRANCH  82  83
ENDBRANCH  52  82
ENDBRANCH  49  52
ENDBRANCH   1  48
BRANCH   1  90
ATOM     90  CB  ARG A   6      50.499   8.469  58.373  0.00  0.00    +0.033 C 
BRANCH  90  91
ATOM     91  CG  ARG A   6      51.386   7.255  58.539  0.00  0.00    +0.045 C 
BRANCH  91  92
ATOM     92  CD  ARG A   6      50.663   6.059  59.109  0.00  0.00    +0.174 C 
BRANCH  92  93
ATOM     93  NE  ARG A   6      51.454   4.839  58.938  0.00  0.00    -0.265 N 
ATOM     94  HE  ARG A   6      52.003   4.500  59.754  0.00  0.00    +0.259 HD
ATOM     95  CZ  ARG A   6      51.519   4.134  57.811  0.00  0.00    +0.342 C 
ATOM     96  NH2 ARG A   6      52.270   3.036  57.759  0.00  0.00    -0.292 N 
ATOM     97 HH21 ARG A   6      52.804   2.731  58.598  0.00  0.00    +0.255 HD
ATOM     98 HH22 ARG A   6      52.323   2.483  56.880  0.00  0.00    +0.255 HD
ATOM     99  NH1 ARG A   6      50.807   4.496  56.750  0.00  0.00    -0.292 N 
ATOM    100 HH11 ARG A   6      50.194   5.335  56.797  0.00  0.00    +0.255 HD
ATOM    101 HH12 ARG A   6      50.862   3.941  55.872  0.00  0.00    +0.255 HD
ENDBRANCH  92  93
ENDBRANCH  91  92
ENDBRANCH  90  91
ENDBRANCH   1  90
TORSDOF 42
REMARK  Name = ../refined-set-2016/3acx/3acx_pocket.pdb
REMARK  221 active torsions:
REMARK  status: ('A' for Active; 'I' for Inactive)
REMARK    1  A    between atoms: _1  and  _3
REMARK    2  A    between atoms: _3  and  _4
REMARK    3  A    between atoms: _3  and  _6
REMARK    4  A    between atoms: _6  and  _7
REMARK    5  A    between atoms: _10  and  _12
REMARK    6  A    between atoms: _12  and  _13
REMARK    7  A    between atoms: _12  and  _15
REMARK    8  A    between atoms: _15  and  _16
REMARK    9  A    between atoms: _16  and  _17
REMARK   10  A    between atoms: _19  and  _21
REMARK   11  A    between atoms: _21  and  _22
REMARK   12  A    between atoms: _21  and  _24
REMARK   13  A    between atoms: _24  and  _25
REMARK   14  A    between atoms: _30  and  _32
REMARK   15  A    between atoms: _32  and  _33
REMARK   16  A    between atoms: _32  and  _35
REMARK   17  A    between atoms: _35  and  _36
REMARK   18  A    between atoms: _38  and  _40
REMARK   19  A    between atoms: _40  and  _41
REMARK   20  A    between atoms: _40  and  _43
REMARK   21  A    between atoms: _43  and  _44
REMARK   22  A    between atoms: _46  and  _48
REMARK   23  A    between atoms: _48  and  _49
REMARK   24  A    between atoms: _48  and  _51
REMARK   25  A    between atoms: _51  and  _52
REMARK   26  A    between atoms: _58  and  _60
REMARK   27  A    between atoms: _60  and  _61
REMARK   28  A    between atoms: _60  and  _63
REMARK   29  A    between atoms: _63  and  _64
REMARK   30  A    between atoms: _66  and  _68
REMARK   31  A    between atoms: _68  and  _69
REMARK   32  A    between atoms: _68  and  _71
REMARK   33  A    between atoms: _71  and  _72
REMARK   34  A    between atoms: _78  and  _80
REMARK   35  A    between atoms: _80  and  _81
REMARK   36  A    between atoms: _80  and  _83
REMARK   37  A    between atoms: _86  and  _88
REMARK   38  A    between atoms: _88  and  _89
REMARK   39  A    between atoms: _88  and  _91
REMARK   40  A    between atoms: _91  and  _92
REMARK   41  A    between atoms: _102  and  _104
REMARK   42  A    between atoms: _104  and  _105
REMARK   43  A    between atoms: _104  and  _107
REMARK   44  A    between atoms: _107  and  _108
REMARK   45  A    between atoms: _111  and  _113
REMARK   46  A    between atoms: _113  and  _114
REMARK   47  A    between atoms: _113  and  _116
REMARK   48  A    between atoms: _116  and  _117
REMARK   49  A    between atoms: _122  and  _123
REMARK   50  A    between atoms: _125  and  _127
REMARK   51  A    between atoms: _127  and  _128
REMARK   52  A    between atoms: _131  and  _133
REMARK   53  A    between atoms: _133  and  _134
REMARK   54  A    between atoms: _133  and  _136
REMARK   55  A    between atoms: _139  and  _141
REMARK   56  A    between atoms: _141  and  _142
REMARK   57  A    between atoms: _141  and  _144
REMARK   58  A    between atoms: _146  and  _148
REMARK   59  A    between atoms: _148  and  _149
REMARK   60  A    between atoms: _148  and  _151
REMARK   61  A    between atoms: _151  and  _152
REMARK   62  A    between atoms: _152  and  _153
REMARK   63  A    between atoms: _153  and  _154
REMARK   64  A    between atoms: _163  and  _165
REMARK   65  A    between atoms: _165  and  _166
REMARK   66  A    between atoms: _165  and  _168
REMARK   67  A    between atoms: _168  and  _169
REMARK   68  A    between atoms: _169  and  _170
REMARK   69  A    between atoms: _170  and  _171
REMARK   70  A    between atoms: _171  and  _172
REMARK   71  A    between atoms: _176  and  _178
REMARK   72  A    between atoms: _178  and  _179
REMARK   73  A    between atoms: _178  and  _181
REMARK   74  A    between atoms: _181  and  _182
REMARK   75  A    between atoms: _185  and  _187
REMARK   76  A    between atoms: _187  and  _188
REMARK   77  A    between atoms: _187  and  _190
REMARK   78  A    between atoms: _190  and  _191
REMARK   79  A    between atoms: _194  and  _196
REMARK   80  A    between atoms: _196  and  _197
REMARK   81  A    between atoms: _196  and  _199
REMARK   82  A    between atoms: _199  and  _200
REMARK   83  A    between atoms: _203  and  _205
REMARK   84  A    between atoms: _205  and  _206
REMARK   85  A    between atoms: _205  and  _208
REMARK   86  A    between atoms: _208  and  _209
REMARK   87  A    between atoms: _212  and  _214
REMARK   88  A    between atoms: _214  and  _215
REMARK   89  A    between atoms: _214  and  _217
REMARK   90  A    between atoms: _219  and  _221
REMARK   91  A    between atoms: _221  and  _222
REMARK   92  A    between atoms: _221  and  _224
REMARK   93  A    between atoms: _227  and  _229
REMARK   94  A    between atoms: _229  and  _230
REMARK   95  A    between atoms: _233  and  _235
REMARK   96  A    between atoms: _235  and  _236
REMARK   97  A    between atoms: _238  and  _240
REMARK   98  A    between atoms: _240  and  _241
REMARK   99  A    between atoms: _240  and  _243
REMARK  100  A    between atoms: _243  and  _244
REMARK  101  A    between atoms: _247  and  _249
REMARK  102  A    between atoms: _249  and  _250
REMARK  103  A    between atoms: _249  and  _252
REMARK  104  A    between atoms: _255  and  _257
REMARK  105  A    between atoms: _257  and  _258
REMARK  106  A    between atoms: _260  and  _262
REMARK  107  A    between atoms: _262  and  _263
REMARK  108  A    between atoms: _262  and  _265
REMARK  109  A    between atoms: _265  and  _266
REMARK  110  A    between atoms: _266  and  _267
REMARK  111  A    between atoms: _270  and  _272
REMARK  112  A    between atoms: _272  and  _273
REMARK  113  A    between atoms: _272  and  _275
REMARK  114  A    between atoms: _278  and  _280
REMARK  115  A    between atoms: _280  and  _281
REMARK  116  A    between atoms: _280  and  _283
REMARK  117  A    between atoms: _283  and  _284
REMARK  118  A    between atoms: _287  and  _289
REMARK  119  A    between atoms: _289  and  _290
REMARK  120  A    between atoms: _289  and  _292
REMARK  121  A    between atoms: _292  and  _293
REMARK  122  A    between atoms: _296  and  _298
REMARK  123  A    between atoms: _298  and  _299
REMARK  124  A    between atoms: _298  and  _301
REMARK  125  A    between atoms: _301  and  _302
REMARK  126  A    between atoms: _305  and  _307
REMARK  127  A    between atoms: _307  and  _308
REMARK  128  A    between atoms: _307  and  _310
REMARK  129  A    between atoms: _310  and  _311
REMARK  130  A    between atoms: _314  and  _316
REMARK  131  A    between atoms: _316  and  _317
REMARK  132  A    between atoms: _316  and  _319
REMARK  133  A    between atoms: _319  and  _320
REMARK  134  A    between atoms: _325  and  _326
REMARK  135  A    between atoms: _328  and  _330
REMARK  136  A    between atoms: _330  and  _331
REMARK  137  A    between atoms: _330  and  _333
REMARK  138  A    between atoms: _336  and  _338
REMARK  139  A    between atoms: _338  and  _339
REMARK  140  A    between atoms: _342  and  _344
REMARK  141  A    between atoms: _344  and  _345
REMARK  142  A    between atoms: _344  and  _347
REMARK  143  A    between atoms: _347  and  _348
REMARK  144  A    between atoms: _348  and  _349
REMARK  145  A    between atoms: _349  and  _350
REMARK  146  A    between atoms: _359  and  _361
REMARK  147  A    between atoms: _361  and  _362
REMARK  148  A    between atoms: _361  and  _364
REMARK  149  A    between atoms: _364  and  _365
REMARK  150  A    between atoms: _365  and  _366
REMARK  151  A    between atoms: _366  and  _367
REMARK  152  A    between atoms: _376  and  _378
REMARK  153  A    between atoms: _378  and  _379
REMARK  154  A    between atoms: _378  and  _381
REMARK  155  A    between atoms: _381  and  _382
REMARK  156  A    between atoms: _385  and  _387
REMARK  157  A    between atoms: _387  and  _388
REMARK  158  A    between atoms: _390  and  _392
REMARK  159  A    between atoms: _392  and  _393
REMARK  160  A    between atoms: _392  and  _395
REMARK  161  A    between atoms: _395  and  _396
REMARK  162  A    between atoms: _396  and  _397
REMARK  163  A    between atoms: _400  and  _402
REMARK  164  A    between atoms: _402  and  _403
REMARK  165  A    between atoms: _402  and  _405
REMARK  166  A    between atoms: _405  and  _406
REMARK  167  A    between atoms: _408  and  _410
REMARK  168  A    between atoms: _410  and  _411
REMARK  169  A    between atoms: _410  and  _413
REMARK  170  A    between atoms: _413  and  _414
REMARK  171  A    between atoms: _417  and  _419
REMARK  172  A    between atoms: _419  and  _420
REMARK  173  A    between atoms: _419  and  _422
REMARK  174  A    between atoms: _422  and  _423
REMARK  175  A    between atoms: _423  and  _424
REMARK  176  A    between atoms: _429  and  _431
REMARK  177  A    between atoms: _431  and  _432
REMARK  178  A    between atoms: _431  and  _434
REMARK  179  A    between atoms: _434  and  _435
REMARK  180  A    between atoms: _438  and  _440
REMARK  181  A    between atoms: _440  and  _441
REMARK  182  A    between atoms: _440  and  _443
REMARK  183  A    between atoms: _443  and  _444
REMARK  184  A    between atoms: _449  and  _451
REMARK  185  A    between atoms: _451  and  _452
REMARK  186  A    between atoms: _451  and  _454
REMARK  187  A    between atoms: _457  and  _459
REMARK  188  A    between atoms: _459  and  _460
REMARK  189  A    between atoms: _459  and  _462
REMARK  190  A    between atoms: _462  and  _463
REMARK  191  A    between atoms: _466  and  _468
REMARK  192  A    between atoms: _468  and  _469
REMARK  193  A    between atoms: _468  and  _471
REMARK  194  A    between atoms: _474  and  _476
REMARK  195  A    between atoms: _476  and  _477
REMARK  196  A    between atoms: _476  and  _479
REMARK  197  A    between atoms: _479  and  _480
REMARK  198  A    between atoms: _486  and  _488
REMARK  199  A    between atoms: _488  and  _489
REMARK  200  A    between atoms: _492  and  _494
REMARK  201  A    between atoms: _494  and  _495
REMARK  202  A    between atoms: _494  and  _497
REMARK  203  A    between atoms: _497  and  _498
REMARK  204  A    between atoms: _501  and  _503
REMARK  205  A    between atoms: _503  and  _504
REMARK  206  A    between atoms: _503  and  _506
REMARK  207  A    between atoms: _506  and  _507
REMARK  208  A    between atoms: _510  and  _512
REMARK  209  A    between atoms: _512  and  _513
REMARK  210  A    between atoms: _512  and  _515
REMARK  211  A    between atoms: _515  and  _516
REMARK  212  A    between atoms: _516  and  _517
REMARK  213  A    between atoms: _520  and  _522
REMARK  214  A    between atoms: _522  and  _523
REMARK  215  A    between atoms: _526  and  _528
REMARK  216  A    between atoms: _528  and  _529
REMARK  217  A    between atoms: _532  and  _534
REMARK  218  A    between atoms: _534  and  _535
REMARK  219  A    between atoms: _534  and  _537
REMARK  220  A    between atoms: _537  and  _538
REMARK  221  A    between atoms: _543  and  _544
REMARK                            x       y       z     vdW  Elec       q    Type
REMARK                         _______ _______ _______ _____ _____    ______ ____
ROOT
ATOM      1  CA  LEU A   1      45.658  13.117  48.147  0.00  0.00    +0.133 C 
ENDROOT
BRANCH   1   2
ATOM      2  N   LEU A   1      44.968  14.266  47.576  0.00  0.00    -0.239 NA
ATOM      3  H   LEU A   1      44.870  15.129  48.148  0.00  0.00    +0.142 HD
ENDBRANCH   1   2
BRANCH   1   4
ATOM      4  C   LEU A   1      44.738  11.896  48.205  0.00  0.00    +0.224 C 
ATOM      5  O   LEU A   1      45.093  10.801  47.764  0.00  0.00    -0.287 OA
ENDBRANCH   1   4
BRANCH   1   6
ATOM      6  CB  LEU A   1      46.208  13.480  49.527  0.00  0.00    +0.025 C 
BRANCH   6   7
ATOM      7  CG  LEU A   1      46.762  12.315  50.337  0.00  0.00    +0.002 C 
ATOM      8  CD2 LEU A   1      47.113  12.772  51.760  0.00  0.00    +0.000 C 
ATOM      9  CD1 LEU A   1      47.938  11.627  49.654  0.00  0.00    +0.000 C 
ENDBRANCH   6   7
ENDBRANCH   1   6
TORSDOF 4
REMARK  Name = ../refined-set-2016/3acx/3acx_pocket.pdb
REMARK  221 active torsions:
REMARK  status: ('A' for Active; 'I' for Inactive)
REMARK    1  A    between atoms: _1  and  _3
REMARK    2  A    between atoms: _3  and  _4
REMARK    3  A    between atoms: _3  and  _6
REMARK    4  A    between atoms: _6  and  _7
REMARK    5  A    between atoms: _10  and  _12
REMARK    6  A    between atoms: _12  and  _13
REMARK    7  A    between atoms: _12  and  _15
REMARK    8  A    between atoms: _15  and  _16
REMARK    9  A    between atoms: _16  and  _17
REMARK   10  A    between atoms: _19  and  _21
REMARK   11  A    between atoms: _21  and  _22
REMARK   12  A    between atoms: _21  and  _24
REMARK   13  A    between atoms: _24  and  _25
REMARK   14  A    between atoms: _30  and  _32
REMARK   15  A    between atoms: _32  and  _33
REMARK   16  A    between atoms: _32  and  _35
REMARK   17  A    between atoms: _35  and  _36
REMARK   18  A    between atoms: _38  and  _40
REMARK   19  A    between atoms: _40  and  _41
REMARK   20  A    between atoms: _40  and  _43
REMARK   21  A    between atoms: _43  and  _44
REMARK   22  A    between atoms: _46  and  _48
REMARK   23  A    between atoms: _48  and  _49
REMARK   24  A    between atoms: _48  and  _51
REMARK   25  A    between atoms: _51  and  _52
REMARK   26  A    between atoms: _58  and  _60
REMARK   27  A    between atoms: _60  and  _61
REMARK   28  A    between atoms: _60  and  _63
REMARK   29  A    between atoms: _63  and  _64
REMARK   30  A    between atoms: _66  and  _68
REMARK   31  A    between atoms: _68  and  _69
REMARK   32  A    between atoms: _68  and  _71
REMARK   33  A    between atoms: _71  and  _72
REMARK   34  A    between atoms: _78  and  _80
REMARK   35  A    between atoms: _80  and  _81
REMARK   36  A    between atoms: _80  and  _83
REMARK   37  A    between atoms: _86  and  _88
REMARK   38  A    between atoms: _88  and  _89
REMARK   39  A    between atoms: _88  and  _91
REMARK   40  A    between atoms: _91  and  _92
REMARK   41  A    between atoms: _102  and  _104
REMARK   42  A    between atoms: _104  and  _105
REMARK   43  A    between atoms: _104  and  _107
REMARK   44  A    between atoms: _107  and  _108
REMARK   45  A    between atoms: _111  and  _113
REMARK   46  A    between atoms: _113  and  _114
REMARK   47  A    between atoms: _113  and  _116
REMARK   48  A    between atoms: _116  and  _117
REMARK   49  A    between atoms: _122  and  _123
REMARK   50  A    between atoms: _125  and  _127
REMARK   51  A    between atoms: _127  and  _128
REMARK   52  A    between atoms: _131  and  _133
REMARK   53  A    between atoms: _133  and  _134
REMARK   54  A    between atoms: _133  and  _136
REMARK   55  A    between atoms: _139  and  _141
REMARK   56  A    between atoms: _141  and  _142
REMARK   57  A    between atoms: _141  and  _144
REMARK   58  A    between atoms: _146  and  _148
REMARK   59  A    between atoms: _148  and  _149
REMARK   60  A    between atoms: _148  and  _151
REMARK   61  A    between atoms: _151  and  _152
REMARK   62  A    between atoms: _152  and  _153
REMARK   63  A    between atoms: _153  and  _154
REMARK   64  A    between atoms: _163  and  _165
REMARK   65  A    between atoms: _165  and  _166
REMARK   66  A    between atoms: _165  and  _168
REMARK   67  A    between atoms: _168  and  _169
REMARK   68  A    between atoms: _169  and  _170
REMARK   69  A    between atoms: _170  and  _171
REMARK   70  A    between atoms: _171  and  _172
REMARK   71  A    between atoms: _176  and  _178
REMARK   72  A    between atoms: _178  and  _179
REMARK   73  A    between atoms: _178  and  _181
REMARK   74  A    between atoms: _181  and  _182
REMARK   75  A    between atoms: _185  and  _187
REMARK   76  A    between atoms: _187  and  _188
REMARK   77  A    between atoms: _187  and  _190
REMARK   78  A    between atoms: _190  and  _191
REMARK   79  A    between atoms: _194  and  _196
REMARK   80  A    between atoms: _196  and  _197
REMARK   81  A    between atoms: _196  and  _199
REMARK   82  A    between atoms: _199  and  _200
REMARK   83  A    between atoms: _203  and  _205
REMARK   84  A    between atoms: _205  and  _206
REMARK   85  A    between atoms: _205  and  _208
REMARK   86  A    between atoms: _208  and  _209
REMARK   87  A    between atoms: _212  and  _214
REMARK   88  A    between atoms: _214  and  _215
REMARK   89  A    between atoms: _214  and  _217
REMARK   90  A    between atoms: _219  and  _221
REMARK   91  A    between atoms: _221  and  _222
REMARK   92  A    between atoms: _221  and  _224
REMARK   93  A    between atoms: _227  and  _229
REMARK   94  A    between atoms: _229  and  _230
REMARK   95  A    between atoms: _233  and  _235
REMARK   96  A    between atoms: _235  and  _236
REMARK   97  A    between atoms: _238  and  _240
REMARK   98  A    between atoms: _240  and  _241
REMARK   99  A    between atoms: _240  and  _243
REMARK  100  A    between atoms: _243  and  _244
REMARK  101  A    between atoms: _247  and  _249
REMARK  102  A    between atoms: _249  and  _250
REMARK  103  A    between atoms: _249  and  _252
REMARK  104  A    between atoms: _255  and  _257
REMARK  105  A    between atoms: _257  and  _258
REMARK  106  A    between atoms: _260  and  _262
REMARK  107  A    between atoms: _262  and  _263
REMARK  108  A    between atoms: _262  and  _265
REMARK  109  A    between atoms: _265  and  _266
REMARK  110  A    between atoms: _266  and  _267
REMARK  111  A    between atoms: _270  and  _272
REMARK  112  A    between atoms: _272  and  _273
REMARK  113  A    between atoms: _272  and  _275
REMARK  114  A    between atoms: _278  and  _280
REMARK  115  A    between atoms: _280  and  _281
REMARK  116  A    between atoms: _280  and  _283
REMARK  117  A    between atoms: _283  and  _284
REMARK  118  A    between atoms: _287  and  _289
REMARK  119  A    between atoms: _289  and  _290
REMARK  120  A    between atoms: _289  and  _292
REMARK  121  A    between atoms: _292  and  _293
REMARK  122  A    between atoms: _296  and  _298
REMARK  123  A    between atoms: _298  and  _299
REMARK  124  A    between atoms: _298  and  _301
REMARK  125  A    between atoms: _301  and  _302
REMARK  126  A    between atoms: _305  and  _307
REMARK  127  A    between atoms: _307  and  _308
REMARK  128  A    between atoms: _307  and  _310
REMARK  129  A    between atoms: _310  and  _311
REMARK  130  A    between atoms: _314  and  _316
REMARK  131  A    between atoms: _316  and  _317
REMARK  132  A    between atoms: _316  and  _319
REMARK  133  A    between atoms: _319  and  _320
REMARK  134  A    between atoms: _325  and  _326
REMARK  135  A    between atoms: _328  and  _330
REMARK  136  A    between atoms: _330  and  _331
REMARK  137  A    between atoms: _330  and  _333
REMARK  138  A    between atoms: _336  and  _338
REMARK  139  A    between atoms: _338  and  _339
REMARK  140  A    between atoms: _342  and  _344
REMARK  141  A    between atoms: _344  and  _345
REMARK  142  A    between atoms: _344  and  _347
REMARK  143  A    between atoms: _347  and  _348
REMARK  144  A    between atoms: _348  and  _349
REMARK  145  A    between atoms: _349  and  _350
REMARK  146  A    between atoms: _359  and  _361
REMARK  147  A    between atoms: _361  and  _362
REMARK  148  A    between atoms: _361  and  _364
REMARK  149  A    between atoms: _364  and  _365
REMARK  150  A    between atoms: _365  and  _366
REMARK  151  A    between atoms: _366  and  _367
REMARK  152  A    between atoms: _376  and  _378
REMARK  153  A    between atoms: _378  and  _379
REMARK  154  A    between atoms: _378  and  _381
REMARK  155  A    between atoms: _381  and  _382
REMARK  156  A    between atoms: _385  and  _387
REMARK  157  A    between atoms: _387  and  _388
REMARK  158  A    between atoms: _390  and  _392
REMARK  159  A    between atoms: _392  and  _393
REMARK  160  A    between atoms: _392  and  _395
REMARK  161  A    between atoms: _395  and  _396
REMARK  162  A    between atoms: _396  and  _397
REMARK  163  A    between atoms: _400  and  _402
REMARK  164  A    between atoms: _402  and  _403
REMARK  165  A    between atoms: _402  and  _405
REMARK  166  A    between atoms: _405  and  _406
REMARK  167  A    between atoms: _408  and  _410
REMARK  168  A    between atoms: _410  and  _411
REMARK  169  A    between atoms: _410  and  _413
REMARK  170  A    between atoms: _413  and  _414
REMARK  171  A    between atoms: _417  and  _419
REMARK  172  A    between atoms: _419  and  _420
REMARK  173  A    between atoms: _419  and  _422
REMARK  174  A    between atoms: _422  and  _423
REMARK  175  A    between atoms: _423  and  _424
REMARK  176  A    between atoms: _429  and  _431
REMARK  177  A    between atoms: _431  and  _432
REMARK  178  A    between atoms: _431  and  _434
REMARK  179  A    between atoms: _434  and  _435
REMARK  180  A    between atoms: _438  and  _440
REMARK  181  A    between atoms: _440  and  _441
REMARK  182  A    between atoms: _440  and  _443
REMARK  183  A    between atoms: _443  and  _444
REMARK  184  A    between atoms: _449  and  _451
REMARK  185  A    between atoms: _451  and  _452
REMARK  186  A    between atoms: _451  and  _454
REMARK  187  A    between atoms: _457  and  _459
REMARK  188  A    between atoms: _459  and  _460
REMARK  189  A    between atoms: _459  and  _462
REMARK  190  A    between atoms: _462  and  _463
REMARK  191  A    between atoms: _466  and  _468
REMARK  192  A    between atoms: _468  and  _469
REMARK  193  A    between atoms: _468  and  _471
REMARK  194  A    between atoms: _474  and  _476
REMARK  195  A    between atoms: _476  and  _477
REMARK  196  A    between atoms: _476  and  _479
REMARK  197  A    between atoms: _479  and  _480
REMARK  198  A    between atoms: _486  and  _488
REMARK  199  A    between atoms: _488  and  _489
REMARK  200  A    between atoms: _492  and  _494
REMARK  201  A    between atoms: _494  and  _495
REMARK  202  A    between atoms: _494  and  _497
REMARK  203  A    between atoms: _497  and  _498
REMARK  204  A    between atoms: _501  and  _503
REMARK  205  A    between atoms: _503  and  _504
REMARK  206  A    between atoms: _503  and  _506
REMARK  207  A    between atoms: _506  and  _507
REMARK  208  A    between atoms: _510  and  _512
REMARK  209  A    between atoms: _512  and  _513
REMARK  210  A    between atoms: _512  and  _515
REMARK  211  A    between atoms: _515  and  _516
REMARK  212  A    between atoms: _516  and  _517
REMARK  213  A    between atoms: _520  and  _522
REMARK  214  A    between atoms: _522  and  _523
REMARK  215  A    between atoms: _526  and  _528
REMARK  216  A    between atoms: _528  and  _529
REMARK  217  A    between atoms: _532  and  _534
REMARK  218  A    between atoms: _534  and  _535
REMARK  219  A    between atoms: _534  and  _537
REMARK  220  A    between atoms: _537  and  _538
REMARK  221  A    between atoms: _543  and  _544
REMARK                            x       y       z     vdW  Elec       q    Type
REMARK                         _______ _______ _______ _____ _____    ______ ____
ROOT
ATOM      1  CA  CYS A   1      54.347  12.585  43.226  0.00  0.00    +0.145 C 
ENDROOT
BRANCH   1   2
ATOM      2  N   CYS A   1      53.578  11.961  42.156  0.00  0.00    -0.238 NA
ATOM      3  H   CYS A   1      53.983  11.878  41.202  0.00  0.00    +0.142 HD
ENDBRANCH   1   2
BRANCH   1   4
ATOM      4  C   CYS A   1      53.620  13.812  43.786  0.00  0.00    +0.225 C 
ATOM      5  O   CYS A   1      53.612  14.049  44.999  0.00  0.00    -0.287 OA
ENDBRANCH   1   4
BRANCH   1   6
ATOM      6  CB  CYS A   1      55.749  12.969  42.752  0.00  0.00    +0.094 C 
ATOM      7  SG  CYS A   1      56.830  11.559  42.430  0.00  0.00    -0.080 S 
ENDBRANCH   1   6
TORSDOF 3
REMARK  Name = ../refined-set-2016/3acx/3acx_pocket.pdb
REMARK  221 active torsions:
REMARK  status: ('A' for Active; 'I' for Inactive)
REMARK    1  A    between atoms: _1  and  _3
REMARK    2  A    between atoms: _3  and  _4
REMARK    3  A    between atoms: _3  and  _6
REMARK    4  A    between atoms: _6  and  _7
REMARK    5  A    between atoms: _10  and  _12
REMARK    6  A    between atoms: _12  and  _13
REMARK    7  A    between atoms: _12  and  _15
REMARK    8  A    between atoms: _15  and  _16
REMARK    9  A    between atoms: _16  and  _17
REMARK   10  A    between atoms: _19  and  _21
REMARK   11  A    between atoms: _21  and  _22
REMARK   12  A    between atoms: _21  and  _24
REMARK   13  A    between atoms: _24  and  _25
REMARK   14  A    between atoms: _30  and  _32
REMARK   15  A    between atoms: _32  and  _33
REMARK   16  A    between atoms: _32  and  _35
REMARK   17  A    between atoms: _35  and  _36
REMARK   18  A    between atoms: _38  and  _40
REMARK   19  A    between atoms: _40  and  _41
REMARK   20  A    between atoms: _40  and  _43
REMARK   21  A    between atoms: _43  and  _44
REMARK   22  A    between atoms: _46  and  _48
REMARK   23  A    between atoms: _48  and  _49
REMARK   24  A    between atoms: _48  and  _51
REMARK   25  A    between atoms: _51  and  _52
REMARK   26  A    between atoms: _58  and  _60
REMARK   27  A    between atoms: _60  and  _61
REMARK   28  A    between atoms: _60  and  _63
REMARK   29  A    between atoms: _63  and  _64
REMARK   30  A    between atoms: _66  and  _68
REMARK   31  A    between atoms: _68  and  _69
REMARK   32  A    between atoms: _68  and  _71
REMARK   33  A    between atoms: _71  and  _72
REMARK   34  A    between atoms: _78  and  _80
REMARK   35  A    between atoms: _80  and  _81
REMARK   36  A    between atoms: _80  and  _83
REMARK   37  A    between atoms: _86  and  _88
REMARK   38  A    between atoms: _88  and  _89
REMARK   39  A    between atoms: _88  and  _91
REMARK   40  A    between atoms: _91  and  _92
REMARK   41  A    between atoms: _102  and  _104
REMARK   42  A    between atoms: _104  and  _105
REMARK   43  A    between atoms: _104  and  _107
REMARK   44  A    between atoms: _107  and  _108
REMARK   45  A    between atoms: _111  and  _113
REMARK   46  A    between atoms: _113  and  _114
REMARK   47  A    between atoms: _113  and  _116
REMARK   48  A    between atoms: _116  and  _117
REMARK   49  A    between atoms: _122  and  _123
REMARK   50  A    between atoms: _125  and  _127
REMARK   51  A    between atoms: _127  and  _128
REMARK   52  A    between atoms: _131  and  _133
REMARK   53  A    between atoms: _133  and  _134
REMARK   54  A    between atoms: _133  and  _136
REMARK   55  A    between atoms: _139  and  _141
REMARK   56  A    between atoms: _141  and  _142
REMARK   57  A    between atoms: _141  and  _144
REMARK   58  A    between atoms: _146  and  _148
REMARK   59  A    between atoms: _148  and  _149
REMARK   60  A    between atoms: _148  and  _151
REMARK   61  A    between atoms: _151  and  _152
REMARK   62  A    between atoms: _152  and  _153
REMARK   63  A    between atoms: _153  and  _154
REMARK   64  A    between atoms: _163  and  _165
REMARK   65  A    between atoms: _165  and  _166
REMARK   66  A    between atoms: _165  and  _168
REMARK   67  A    between atoms: _168  and  _169
REMARK   68  A    between atoms: _169  and  _170
REMARK   69  A    between atoms: _170  and  _171
REMARK   70  A    between atoms: _171  and  _172
REMARK   71  A    between atoms: _176  and  _178
REMARK   72  A    between atoms: _178  and  _179
REMARK   73  A    between atoms: _178  and  _181
REMARK   74  A    between atoms: _181  and  _182
REMARK   75  A    between atoms: _185  and  _187
REMARK   76  A    between atoms: _187  and  _188
REMARK   77  A    between atoms: _187  and  _190
REMARK   78  A    between atoms: _190  and  _191
REMARK   79  A    between atoms: _194  and  _196
REMARK   80  A    between atoms: _196  and  _197
REMARK   81  A    between atoms: _196  and  _199
REMARK   82  A    between atoms: _199  and  _200
REMARK   83  A    between atoms: _203  and  _205
REMARK   84  A    between atoms: _205  and  _206
REMARK   85  A    between atoms: _205  and  _208
REMARK   86  A    between atoms: _208  and  _209
REMARK   87  A    between atoms: _212  and  _214
REMARK   88  A    between atoms: _214  and  _215
REMARK   89  A    between atoms: _214  and  _217
REMARK   90  A    between atoms: _219  and  _221
REMARK   91  A    between atoms: _221  and  _222
REMARK   92  A    between atoms: _221  and  _224
REMARK   93  A    between atoms: _227  and  _229
REMARK   94  A    between atoms: _229  and  _230
REMARK   95  A    between atoms: _233  and  _235
REMARK   96  A    between atoms: _235  and  _236
REMARK   97  A    between atoms: _238  and  _240
REMARK   98  A    between atoms: _240  and  _241
REMARK   99  A    between atoms: _240  and  _243
REMARK  100  A    between atoms: _243  and  _244
REMARK  101  A    between atoms: _247  and  _249
REMARK  102  A    between atoms: _249  and  _250
REMARK  103  A    between atoms: _249  and  _252
REMARK  104  A    between atoms: _255  and  _257
REMARK  105  A    between atoms: _257  and  _258
REMARK  106  A    between atoms: _260  and  _262
REMARK  107  A    between atoms: _262  and  _263
REMARK  108  A    between atoms: _262  and  _265
REMARK  109  A    between atoms: _265  and  _266
REMARK  110  A    between atoms: _266  and  _267
REMARK  111  A    between atoms: _270  and  _272
REMARK  112  A    between atoms: _272  and  _273
REMARK  113  A    between atoms: _272  and  _275
REMARK  114  A    between atoms: _278  and  _280
REMARK  115  A    between atoms: _280  and  _281
REMARK  116  A    between atoms: _280  and  _283
REMARK  117  A    between atoms: _283  and  _284
REMARK  118  A    between atoms: _287  and  _289
REMARK  119  A    between atoms: _289  and  _290
REMARK  120  A    between atoms: _289  and  _292
REMARK  121  A    between atoms: _292  and  _293
REMARK  122  A    between atoms: _296  and  _298
REMARK  123  A    between atoms: _298  and  _299
REMARK  124  A    between atoms: _298  and  _301
REMARK  125  A    between atoms: _301  and  _302
REMARK  126  A    between atoms: _305  and  _307
REMARK  127  A    between atoms: _307  and  _308
REMARK  128  A    between atoms: _307  and  _310
REMARK  129  A    between atoms: _310  and  _311
REMARK  130  A    between atoms: _314  and  _316
REMARK  131  A    between atoms: _316  and  _317
REMARK  132  A    between atoms: _316  and  _319
REMARK  133  A    between atoms: _319  and  _320
REMARK  134  A    between atoms: _325  and  _326
REMARK  135  A    between atoms: _328  and  _330
REMARK  136  A    between atoms: _330  and  _331
REMARK  137  A    between atoms: _330  and  _333
REMARK  138  A    between atoms: _336  and  _338
REMARK  139  A    between atoms: _338  and  _339
REMARK  140  A    between atoms: _342  and  _344
REMARK  141  A    between atoms: _344  and  _345
REMARK  142  A    between atoms: _344  and  _347
REMARK  143  A    between atoms: _347  and  _348
REMARK  144  A    between atoms: _348  and  _349
REMARK  145  A    between atoms: _349  and  _350
REMARK  146  A    between atoms: _359  and  _361
REMARK  147  A    between atoms: _361  and  _362
REMARK  148  A    between atoms: _361  and  _364
REMARK  149  A    between atoms: _364  and  _365
REMARK  150  A    between atoms: _365  and  _366
REMARK  151  A    between atoms: _366  and  _367
REMARK  152  A    between atoms: _376  and  _378
REMARK  153  A    between atoms: _378  and  _379
REMARK  154  A    between atoms: _378  and  _381
REMARK  155  A    between atoms: _381  and  _382
REMARK  156  A    between atoms: _385  and  _387
REMARK  157  A    between atoms: _387  and  _388
REMARK  158  A    between atoms: _390  and  _392
REMARK  159  A    between atoms: _392  and  _393
REMARK  160  A    between atoms: _392  and  _395
REMARK  161  A    between atoms: _395  and  _396
REMARK  162  A    between atoms: _396  and  _397
REMARK  163  A    between atoms: _400  and  _402
REMARK  164  A    between atoms: _402  and  _403
REMARK  165  A    between atoms: _402  and  _405
REMARK  166  A    between atoms: _405  and  _406
REMARK  167  A    between atoms: _408  and  _410
REMARK  168  A    between atoms: _410  and  _411
REMARK  169  A    between atoms: _410  and  _413
REMARK  170  A    between atoms: _413  and  _414
REMARK  171  A    between atoms: _417  and  _419
REMARK  172  A    between atoms: _419  and  _420
REMARK  173  A    between atoms: _419  and  _422
REMARK  174  A    between atoms: _422  and  _423
REMARK  175  A    between atoms: _423  and  _424
REMARK  176  A    between atoms: _429  and  _431
REMARK  177  A    between atoms: _431  and  _432
REMARK  178  A    between atoms: _431  and  _434
REMARK  179  A    between atoms: _434  and  _435
REMARK  180  A    between atoms: _438  and  _440
REMARK  181  A    between atoms: _440  and  _441
REMARK  182  A    between atoms: _440  and  _443
REMARK  183  A    between atoms: _443  and  _444
REMARK  184  A    between atoms: _449  and  _451
REMARK  185  A    between atoms: _451  and  _452
REMARK  186  A    between atoms: _451  and  _454
REMARK  187  A    between atoms: _457  and  _459
REMARK  188  A    between atoms: _459  and  _460
REMARK  189  A    between atoms: _459  and  _462
REMARK  190  A    between atoms: _462  and  _463
REMARK  191  A    between atoms: _466  and  _468
REMARK  192  A    between atoms: _468  and  _469
REMARK  193  A    between atoms: _468  and  _471
REMARK  194  A    between atoms: _474  and  _476
REMARK  195  A    between atoms: _476  and  _477
REMARK  196  A    between atoms: _476  and  _479
REMARK  197  A    between atoms: _479  and  _480
REMARK  198  A    between atoms: _486  and  _488
REMARK  199  A    between atoms: _488  and  _489
REMARK  200  A    between atoms: _492  and  _494
REMARK  201  A    between atoms: _494  and  _495
REMARK  202  A    between atoms: _494  and  _497
REMARK  203  A    between atoms: _497  and  _498
REMARK  204  A    between atoms: _501  and  _503
REMARK  205  A    between atoms: _503  and  _504
REMARK  206  A    between atoms: _503  and  _506
REMARK  207  A    between atoms: _506  and  _507
REMARK  208  A    between atoms: _510  and  _512
REMARK  209  A    between atoms: _512  and  _513
REMARK  210  A    between atoms: _512  and  _515
REMARK  211  A    between atoms: _515  and  _516
REMARK  212  A    between atoms: _516  and  _517
REMARK  213  A    between atoms: _520  and  _522
REMARK  214  A    between atoms: _522  and  _523
REMARK  215  A    between atoms: _526  and  _528
REMARK  216  A    between atoms: _528  and  _529
REMARK  217  A    between atoms: _532  and  _534
REMARK  218  A    between atoms: _534  and  _535
REMARK  219  A    between atoms: _534  and  _537
REMARK  220  A    between atoms: _537  and  _538
REMARK  221  A    between atoms: _543  and  _544
REMARK                            x       y       z     vdW  Elec       q    Type
REMARK                         _______ _______ _______ _____ _____    ______ ____
ROOT
ATOM      1  CA  GLY A   6      53.549  20.180  51.188  0.00  0.00    +0.176 C 
ENDROOT
BRANCH   1   2
ATOM      2  C   GLY A   6      52.608  21.376  51.153  0.00  0.00    +0.243 C 
ATOM      3  O   GLY A   6      52.795  22.362  51.878  0.00  0.00    -0.273 OA
ATOM      4  N   GLU A   7      51.584  21.312  50.309  0.00  0.00    -0.297 N 
ATOM      5  H   GLU A   7      51.489  20.500  49.667  0.00  0.00    +0.150 HD
BRANCH   4   6
ATOM      6  CA  GLU A   7      50.588  22.387  50.284  0.00  0.00    +0.149 C 
BRANCH   6   7
ATOM      7  C   GLU A   7      49.879  22.526  51.621  0.00  0.00    +0.241 C 
ATOM      8  N   VAL A   8      49.485  21.409  52.242  0.00  0.00    -0.297 N 
ATOM      9  H   VAL A   8      49.683  20.480  51.818  0.00  0.00    +0.150 HD
ATOM     10  O   GLU A   7      49.710  23.650  52.097  0.00  0.00    -0.273 OA
BRANCH   8  11
ATOM     11  CA  VAL A   8      48.774  21.495  53.520  0.00  0.00    +0.149 C 
BRANCH  11  12
ATOM     12  C   VAL A   8      49.706  22.103  54.582  0.00  0.00    +0.241 C 
ATOM     13  O   VAL A   8      49.285  22.895  55.429  0.00  0.00    -0.273 OA
ATOM     14  N   LEU A   9      50.985  21.738  54.563  0.00  0.00    -0.297 N 
ATOM     15  H   LEU A   9      51.317  21.074  53.834  0.00  0.00    +0.150 HD
BRANCH  14  16
ATOM     16  CA  LEU A   9      51.935  22.256  55.552  0.00  0.00    +0.149 C 
BRANCH  16  17
ATOM     17  C   LEU A   9      52.297  23.726  55.361  0.00  0.00    +0.241 C 
ATOM     18  O   LEU A   9      52.800  24.375  56.290  0.00  0.00    -0.273 OA
ATOM     19  N   THR A  10      52.054  24.270  54.170  0.00  0.00    -0.296 N 
ATOM     20  H   THR A  10      51.495  23.741  53.470  0.00  0.00    +0.150 HD
BRANCH  19  21
ATOM     21  CA  THR A  10      52.558  25.596  53.830  0.00  0.00    +0.164 C 
BRANCH  21  22
ATOM     22  C   THR A  10      52.193  26.684  54.858  0.00  0.00    +0.229 C 
ATOM     23  O   THR A  10      53.093  27.390  55.313  0.00  0.00    -0.286 OA
ENDBRANCH  21  22
BRANCH  21  24
ATOM     24  CB  THR A  10      52.164  25.949  52.382  0.00  0.00    +0.136 C 
ATOM     25  CG2 THR A  10      52.384  27.418  52.078  0.00  0.00    +0.034 C 
BRANCH  24  26
ATOM     26  OG1 THR A  10      52.971  25.182  51.485  0.00  0.00    -0.382 OA
ATOM     27  HG1 THR A  10      52.819  24.218  51.649  0.00  0.00    +0.210 HD
ENDBRANCH  24  26
ENDBRANCH  21  24
ENDBRANCH  19  21
ENDBRANCH  16  17
BRANCH  16  28
ATOM     28  CB  LEU A   9      53.219  21.430  55.525  0.00  0.00    +0.029 C 
BRANCH  28  29
ATOM     29  CG  LEU A   9      53.063  19.996  56.031  0.00  0.00    +0.002 C 
ATOM     30  CD2 LEU A   9      52.842  19.953  57.535  0.00  0.00    +0.000 C 
ATOM     31  CD1 LEU A   9      54.298  19.173  55.695  0.00  0.00    +0.000 C 
ENDBRANCH  28  29
ENDBRANCH  16  28
ENDBRANCH  14  16
ENDBRANCH  11  12
BRANCH  11  32
ATOM     32  CB  VAL A   8      48.186  20.145  53.968  0.00  0.00    +0.027 C 
ATOM     33  CG2 VAL A   8      47.493  20.324  55.304  0.00  0.00    +0.002 C 
ATOM     34  CG1 VAL A   8      47.198  19.617  52.945  0.00  0.00    +0.002 C 
ENDBRANCH  11  32
ENDBRANCH   8  11
ENDBRANCH   6   7
BRANCH   6  35
ATOM     35  CB  GLU A   7      49.574  22.149  49.171  0.00  0.00    +0.041 C 
BRANCH  35  36
ATOM     36  CG  GLU A   7      50.150  22.253  47.774  0.00  0.00    +0.116 C 
BRANCH  36  37
ATOM     37  CD  GLU A   7      49.189  21.841  46.677  0.00  0.00    +0.365 C 
ATOM     38  OE2 GLU A   7      48.358  20.938  46.899  0.00  0.00    -0.246 OA
ATOM     39  OE1 GLU A   7      49.315  22.386  45.555  0.00  0.00    -0.246 OA
ENDBRANCH  36  37
ENDBRANCH  35  36
ENDBRANCH   6  35
ENDBRANCH   4   6
ENDBRANCH   1   2
BRANCH   1  42
ATOM     40  C   VAL A   5      51.935  18.596  52.038  0.00  0.00    +0.241 C 
ATOM     41  O   VAL A   5      51.720  19.330  53.015  0.00  0.00    -0.273 OA
ATOM     42  N   GLY A   6      52.839  18.911  51.112  0.00  0.00    -0.295 N 
ATOM     43  H   GLY A   6      53.038  18.250  50.334  0.00  0.00    +0.150 HD
BRANCH  40  44
ATOM     44  CA  VAL A   5      51.160  17.297  51.841  0.00  0.00    +0.149 C 
BRANCH  44  47
ATOM     45  C   THR A   4      49.965  18.047  49.862  0.00  0.00    +0.243 C 
ATOM     46  O   THR A   4      49.489  19.006  50.481  0.00  0.00    -0.273 OA
ATOM     47  N   VAL A   5      50.779  17.169  50.442  0.00  0.00    -0.297 N 
ATOM     48  H   VAL A   5      51.151  16.374  49.884  0.00  0.00    +0.150 HD
BRANCH  45  49
ATOM     49  CA  THR A   4      49.640  17.822  48.386  0.00  0.00    +0.176 C 
BRANCH  49  52
ATOM     50  C   GLY A   3      51.907  18.275  47.561  0.00  0.00    +0.243 C 
ATOM     51  O   GLY A   3      51.941  19.371  48.111  0.00  0.00    -0.273 OA
ATOM     52  N   THR A   4      50.841  17.483  47.628  0.00  0.00    -0.295 N 
ATOM     53  H   THR A   4      50.864  16.578  47.116  0.00  0.00    +0.150 HD
BRANCH  50  54
ATOM     54  CA  GLY A   3      53.108  17.735  46.798  0.00  0.00    +0.176 C 
BRANCH  54  57
ATOM     55  C   ALA A   2      53.444  15.838  48.246  0.00  0.00    +0.241 C 
ATOM     56  O   ALA A   2      53.578  16.592  49.210  0.00  0.00    -0.273 OA
ATOM     57  N   GLY A   3      53.278  16.304  47.013  0.00  0.00    -0.295 N 
ATOM     58  H   GLY A   3      53.269  15.650  46.204  0.00  0.00    +0.150 HD
BRANCH  55  59
ATOM     59  CA  ALA A   2      53.470  14.336  48.460  0.00  0.00    +0.149 C 
ATOM     60  CB  ALA A   2      54.852  13.778  48.183  0.00  0.00    +0.031 C 
BRANCH  59  63
ATOM     61  C   VAL A   1      51.781  12.607  48.239  0.00  0.00    +0.238 C 
ATOM     62  O   VAL A   1      51.914  12.281  49.411  0.00  0.00    -0.274 OA
ATOM     63  N   ALA A   2      52.442  13.633  47.700  0.00  0.00    -0.297 N 
ATOM     64  H   ALA A   2      52.222  13.934  46.729  0.00  0.00    +0.150 HD
BRANCH  61  65
ATOM     65  CA  VAL A   1      50.858  11.796  47.348  0.00  0.00    +0.145 C 
BRANCH  65  66
ATOM     66  CB  VAL A   1      51.375  10.344  47.237  0.00  0.00    +0.025 C 
ATOM     67  CG2 VAL A   1      52.762  10.256  46.606  0.00  0.00    +0.002 C 
ATOM     68  CG1 VAL A   1      50.341   9.437  46.574  0.00  0.00    +0.002 C 
ENDBRANCH  65  66
BRANCH  65  69
ATOM     69  N   VAL A   1      50.575  12.402  46.049  0.00  0.00    -0.238 NA
ATOM     70  H   VAL A   1      51.237  12.271  45.257  0.00  0.00    +0.142 HD
ENDBRANCH  65  69
ENDBRANCH  61  65
ENDBRANCH  59  63
ENDBRANCH  55  59
ENDBRANCH  54  57
ENDBRANCH  50  54
ENDBRANCH  49  52
BRANCH  49  71
ATOM     71  CB  THR A   4      48.608  16.699  48.285  0.00  0.00    +0.137 C 
ATOM     72  CG2 THR A   4      47.956  16.663  46.903  0.00  0.00    +0.034 C 
BRANCH  71  73
ATOM     73  OG1 THR A   4      49.252  15.460  48.600  0.00  0.00    -0.382 OA
ATOM     74  HG1 THR A   4      48.594  14.723  48.538  0.00  0.00    +0.210 HD
ENDBRANCH  71  73
ENDBRANCH  49  71
ENDBRANCH  45  49
ENDBRANCH  44  47
BRANCH  44  75
ATOM     75  CB  VAL A   5      51.995  16.094  52.300  0.00  0.00    +0.027 C 
ATOM     76  CG2 VAL A   5      52.357  16.219  53.769  0.00  0.00    +0.002 C 
ATOM     77  CG1 VAL A   5      51.246  14.799  52.051  0.00  0.00    +0.002 C 
ENDBRANCH  44  75
ENDBRANCH  40  44
ENDBRANCH   1  42
TORSDOF 32
REMARK  Name = ../refined-set-2016/3acx/3acx_pocket.pdb
REMARK  221 active torsions:
REMARK  status: ('A' for Active; 'I' for Inactive)
REMARK    1  A    between atoms: _1  and  _3
REMARK    2  A    between atoms: _3  and  _4
REMARK    3  A    between atoms: _3  and  _6
REMARK    4  A    between atoms: _6  and  _7
REMARK    5  A    between atoms: _10  and  _12
REMARK    6  A    between atoms: _12  and  _13
REMARK    7  A    between atoms: _12  and  _15
REMARK    8  A    between atoms: _15  and  _16
REMARK    9  A    between atoms: _16  and  _17
REMARK   10  A    between atoms: _19  and  _21
REMARK   11  A    between atoms: _21  and  _22
REMARK   12  A    between atoms: _21  and  _24
REMARK   13  A    between atoms: _24  and  _25
REMARK   14  A    between atoms: _30  and  _32
REMARK   15  A    between atoms: _32  and  _33
REMARK   16  A    between atoms: _32  and  _35
REMARK   17  A    between atoms: _35  and  _36
REMARK   18  A    between atoms: _38  and  _40
REMARK   19  A    between atoms: _40  and  _41
REMARK   20  A    between atoms: _40  and  _43
REMARK   21  A    between atoms: _43  and  _44
REMARK   22  A    between atoms: _46  and  _48
REMARK   23  A    between atoms: _48  and  _49
REMARK   24  A    between atoms: _48  and  _51
REMARK   25  A    between atoms: _51  and  _52
REMARK   26  A    between atoms: _58  and  _60
REMARK   27  A    between atoms: _60  and  _61
REMARK   28  A    between atoms: _60  and  _63
REMARK   29  A    between atoms: _63  and  _64
REMARK   30  A    between atoms: _66  and  _68
REMARK   31  A    between atoms: _68  and  _69
REMARK   32  A    between atoms: _68  and  _71
REMARK   33  A    between atoms: _71  and  _72
REMARK   34  A    between atoms: _78  and  _80
REMARK   35  A    between atoms: _80  and  _81
REMARK   36  A    between atoms: _80  and  _83
REMARK   37  A    between atoms: _86  and  _88
REMARK   38  A    between atoms: _88  and  _89
REMARK   39  A    between atoms: _88  and  _91
REMARK   40  A    between atoms: _91  and  _92
REMARK   41  A    between atoms: _102  and  _104
REMARK   42  A    between atoms: _104  and  _105
REMARK   43  A    between atoms: _104  and  _107
REMARK   44  A    between atoms: _107  and  _108
REMARK   45  A    between atoms: _111  and  _113
REMARK   46  A    between atoms: _113  and  _114
REMARK   47  A    between atoms: _113  and  _116
REMARK   48  A    between atoms: _116  and  _117
REMARK   49  A    between atoms: _122  and  _123
REMARK   50  A    between atoms: _125  and  _127
REMARK   51  A    between atoms: _127  and  _128
REMARK   52  A    between atoms: _131  and  _133
REMARK   53  A    between atoms: _133  and  _134
REMARK   54  A    between atoms: _133  and  _136
REMARK   55  A    between atoms: _139  and  _141
REMARK   56  A    between atoms: _141  and  _142
REMARK   57  A    between atoms: _141  and  _144
REMARK   58  A    between atoms: _146  and  _148
REMARK   59  A    between atoms: _148  and  _149
REMARK   60  A    between atoms: _148  and  _151
REMARK   61  A    between atoms: _151  and  _152
REMARK   62  A    between atoms: _152  and  _153
REMARK   63  A    between atoms: _153  and  _154
REMARK   64  A    between atoms: _163  and  _165
REMARK   65  A    between atoms: _165  and  _166
REMARK   66  A    between atoms: _165  and  _168
REMARK   67  A    between atoms: _168  and  _169
REMARK   68  A    between atoms: _169  and  _170
REMARK   69  A    between atoms: _170  and  _171
REMARK   70  A    between atoms: _171  and  _172
REMARK   71  A    between atoms: _176  and  _178
REMARK   72  A    between atoms: _178  and  _179
REMARK   73  A    between atoms: _178  and  _181
REMARK   74  A    between atoms: _181  and  _182
REMARK   75  A    between atoms: _185  and  _187
REMARK   76  A    between atoms: _187  and  _188
REMARK   77  A    between atoms: _187  and  _190
REMARK   78  A    between atoms: _190  and  _191
REMARK   79  A    between atoms: _194  and  _196
REMARK   80  A    between atoms: _196  and  _197
REMARK   81  A    between atoms: _196  and  _199
REMARK   82  A    between atoms: _199  and  _200
REMARK   83  A    between atoms: _203  and  _205
REMARK   84  A    between atoms: _205  and  _206
REMARK   85  A    between atoms: _205  and  _208
REMARK   86  A    between atoms: _208  and  _209
REMARK   87  A    between atoms: _212  and  _214
REMARK   88  A    between atoms: _214  and  _215
REMARK   89  A    between atoms: _214  and  _217
REMARK   90  A    between atoms: _219  and  _221
REMARK   91  A    between atoms: _221  and  _222
REMARK   92  A    between atoms: _221  and  _224
REMARK   93  A    between atoms: _227  and  _229
REMARK   94  A    between atoms: _229  and  _230
REMARK   95  A    between atoms: _233  and  _235
REMARK   96  A    between atoms: _235  and  _236
REMARK   97  A    between atoms: _238  and  _240
REMARK   98  A    between atoms: _240  and  _241
REMARK   99  A    between atoms: _240  and  _243
REMARK  100  A    between atoms: _243  and  _244
REMARK  101  A    between atoms: _247  and  _249
REMARK  102  A    between atoms: _249  and  _250
REMARK  103  A    between atoms: _249  and  _252
REMARK  104  A    between atoms: _255  and  _257
REMARK  105  A    between atoms: _257  and  _258
REMARK  106  A    between atoms: _260  and  _262
REMARK  107  A    between atoms: _262  and  _263
REMARK  108  A    between atoms: _262  and  _265
REMARK  109  A    between atoms: _265  and  _266
REMARK  110  A    between atoms: _266  and  _267
REMARK  111  A    between atoms: _270  and  _272
REMARK  112  A    between atoms: _272  and  _273
REMARK  113  A    between atoms: _272  and  _275
REMARK  114  A    between atoms: _278  and  _280
REMARK  115  A    between atoms: _280  and  _281
REMARK  116  A    between atoms: _280  and  _283
REMARK  117  A    between atoms: _283  and  _284
REMARK  118  A    between atoms: _287  and  _289
REMARK  119  A    between atoms: _289  and  _290
REMARK  120  A    between atoms: _289  and  _292
REMARK  121  A    between atoms: _292  and  _293
REMARK  122  A    between atoms: _296  and  _298
REMARK  123  A    between atoms: _298  and  _299
REMARK  124  A    between atoms: _298  and  _301
REMARK  125  A    between atoms: _301  and  _302
REMARK  126  A    between atoms: _305  and  _307
REMARK  127  A    between atoms: _307  and  _308
REMARK  128  A    between atoms: _307  and  _310
REMARK  129  A    between atoms: _310  and  _311
REMARK  130  A    between atoms: _314  and  _316
REMARK  131  A    between atoms: _316  and  _317
REMARK  132  A    between atoms: _316  and  _319
REMARK  133  A    between atoms: _319  and  _320
REMARK  134  A    between atoms: _325  and  _326
REMARK  135  A    between atoms: _328  and  _330
REMARK  136  A    between atoms: _330  and  _331
REMARK  137  A    between atoms: _330  and  _333
REMARK  138  A    between atoms: _336  and  _338
REMARK  139  A    between atoms: _338  and  _339
REMARK  140  A    between atoms: _342  and  _344
REMARK  141  A    between atoms: _344  and  _345
REMARK  142  A    between atoms: _344  and  _347
REMARK  143  A    between atoms: _347  and  _348
REMARK  144  A    between atoms: _348  and  _349
REMARK  145  A    between atoms: _349  and  _350
REMARK  146  A    between atoms: _359  and  _361
REMARK  147  A    between atoms: _361  and  _362
REMARK  148  A    between atoms: _361  and  _364
REMARK  149  A    between atoms: _364  and  _365
REMARK  150  A    between atoms: _365  and  _366
REMARK  151  A    between atoms: _366  and  _367
REMARK  152  A    between atoms: _376  and  _378
REMARK  153  A    between atoms: _378  and  _379
REMARK  154  A    between atoms: _378  and  _381
REMARK  155  A    between atoms: _381  and  _382
REMARK  156  A    between atoms: _385  and  _387
REMARK  157  A    between atoms: _387  and  _388
REMARK  158  A    between atoms: _390  and  _392
REMARK  159  A    between atoms: _392  and  _393
REMARK  160  A    between atoms: _392  and  _395
REMARK  161  A    between atoms: _395  and  _396
REMARK  162  A    between atoms: _396  and  _397
REMARK  163  A    between atoms: _400  and  _402
REMARK  164  A    between atoms: _402  and  _403
REMARK  165  A    between atoms: _402  and  _405
REMARK  166  A    between atoms: _405  and  _406
REMARK  167  A    between atoms: _408  and  _410
REMARK  168  A    between atoms: _410  and  _411
REMARK  169  A    between atoms: _410  and  _413
REMARK  170  A    between atoms: _413  and  _414
REMARK  171  A    between atoms: _417  and  _419
REMARK  172  A    between atoms: _419  and  _420
REMARK  173  A    between atoms: _419  and  _422
REMARK  174  A    between atoms: _422  and  _423
REMARK  175  A    between atoms: _423  and  _424
REMARK  176  A    between atoms: _429  and  _431
REMARK  177  A    between atoms: _431  and  _432
REMARK  178  A    between atoms: _431  and  _434
REMARK  179  A    between atoms: _434  and  _435
REMARK  180  A    between atoms: _438  and  _440
REMARK  181  A    between atoms: _440  and  _441
REMARK  182  A    between atoms: _440  and  _443
REMARK  183  A    between atoms: _443  and  _444
REMARK  184  A    between atoms: _449  and  _451
REMARK  185  A    between atoms: _451  and  _452
REMARK  186  A    between atoms: _451  and  _454
REMARK  187  A    between atoms: _457  and  _459
REMARK  188  A    between atoms: _459  and  _460
REMARK  189  A    between atoms: _459  and  _462
REMARK  190  A    between atoms: _462  and  _463
REMARK  191  A    between atoms: _466  and  _468
REMARK  192  A    between atoms: _468  and  _469
REMARK  193  A    between atoms: _468  and  _471
REMARK  194  A    between atoms: _474  and  _476
REMARK  195  A    between atoms: _476  and  _477
REMARK  196  A    between atoms: _476  and  _479
REMARK  197  A    between atoms: _479  and  _480
REMARK  198  A    between atoms: _486  and  _488
REMARK  199  A    between atoms: _488  and  _489
REMARK  200  A    between atoms: _492  and  _494
REMARK  201  A    between atoms: _494  and  _495
REMARK  202  A    between atoms: _494  and  _497
REMARK  203  A    between atoms: _497  and  _498
REMARK  204  A    between atoms: _501  and  _503
REMARK  205  A    between atoms: _503  and  _504
REMARK  206  A    between atoms: _503  and  _506
REMARK  207  A    between atoms: _506  and  _507
REMARK  208  A    between atoms: _510  and  _512
REMARK  209  A    between atoms: _512  and  _513
REMARK  210  A    between atoms: _512  and  _515
REMARK  211  A    between atoms: _515  and  _516
REMARK  212  A    between atoms: _516  and  _517
REMARK  213  A    between atoms: _520  and  _522
REMARK  214  A    between atoms: _522  and  _523
REMARK  215  A    between atoms: _526  and  _528
REMARK  216  A    between atoms: _528  and  _529
REMARK  217  A    between atoms: _532  and  _534
REMARK  218  A    between atoms: _534  and  _535
REMARK  219  A    between atoms: _534  and  _537
REMARK  220  A    between atoms: _537  and  _538
REMARK  221  A    between atoms: _543  and  _544
REMARK                            x       y       z     vdW  Elec       q    Type
REMARK                         _______ _______ _______ _____ _____    ______ ____
ROOT
ATOM      1  CA  LEU A   1      55.650  26.775  58.052  0.00  0.00    +0.133 C 
ENDROOT
BRANCH   1   2
ATOM      2  N   LEU A   1      54.219  26.559  58.135  0.00  0.00    -0.239 NA
ATOM      3  H   LEU A   1      53.686  26.350  57.267  0.00  0.00    +0.142 HD
ENDBRANCH   1   2
BRANCH   1   4
ATOM      4  C   LEU A   1      56.030  28.109  57.443  0.00  0.00    +0.224 C 
ATOM      5  O   LEU A   1      57.210  28.349  57.206  0.00  0.00    -0.287 OA
ENDBRANCH   1   4
BRANCH   1   6
ATOM      6  CB  LEU A   1      56.306  25.620  57.291  0.00  0.00    +0.025 C 
BRANCH   6   7
ATOM      7  CG  LEU A   1      56.014  24.233  57.865  0.00  0.00    +0.002 C 
ATOM      8  CD2 LEU A   1      56.572  24.094  59.280  0.00  0.00    +0.000 C 
ATOM      9  CD1 LEU A   1      56.601  23.158  56.951  0.00  0.00    +0.000 C 
ENDBRANCH   6   7
ENDBRANCH   1   6
TORSDOF 4
REMARK  Name = ../refined-set-2016/3acx/3acx_pocket.pdb
REMARK  221 active torsions:
REMARK  status: ('A' for Active; 'I' for Inactive)
REMARK    1  A    between atoms: _1  and  _3
REMARK    2  A    between atoms: _3  and  _4
REMARK    3  A    between atoms: _3  and  _6
REMARK    4  A    between atoms: _6  and  _7
REMARK    5  A    between atoms: _10  and  _12
REMARK    6  A    between atoms: _12  and  _13
REMARK    7  A    between atoms: _12  and  _15
REMARK    8  A    between atoms: _15  and  _16
REMARK    9  A    between atoms: _16  and  _17
REMARK   10  A    between atoms: _19  and  _21
REMARK   11  A    between atoms: _21  and  _22
REMARK   12  A    between atoms: _21  and  _24
REMARK   13  A    between atoms: _24  and  _25
REMARK   14  A    between atoms: _30  and  _32
REMARK   15  A    between atoms: _32  and  _33
REMARK   16  A    between atoms: _32  and  _35
REMARK   17  A    between atoms: _35  and  _36
REMARK   18  A    between atoms: _38  and  _40
REMARK   19  A    between atoms: _40  and  _41
REMARK   20  A    between atoms: _40  and  _43
REMARK   21  A    between atoms: _43  and  _44
REMARK   22  A    between atoms: _46  and  _48
REMARK   23  A    between atoms: _48  and  _49
REMARK   24  A    between atoms: _48  and  _51
REMARK   25  A    between atoms: _51  and  _52
REMARK   26  A    between atoms: _58  and  _60
REMARK   27  A    between atoms: _60  and  _61
REMARK   28  A    between atoms: _60  and  _63
REMARK   29  A    between atoms: _63  and  _64
REMARK   30  A    between atoms: _66  and  _68
REMARK   31  A    between atoms: _68  and  _69
REMARK   32  A    between atoms: _68  and  _71
REMARK   33  A    between atoms: _71  and  _72
REMARK   34  A    between atoms: _78  and  _80
REMARK   35  A    between atoms: _80  and  _81
REMARK   36  A    between atoms: _80  and  _83
REMARK   37  A    between atoms: _86  and  _88
REMARK   38  A    between atoms: _88  and  _89
REMARK   39  A    between atoms: _88  and  _91
REMARK   40  A    between atoms: _91  and  _92
REMARK   41  A    between atoms: _102  and  _104
REMARK   42  A    between atoms: _104  and  _105
REMARK   43  A    between atoms: _104  and  _107
REMARK   44  A    between atoms: _107  and  _108
REMARK   45  A    between atoms: _111  and  _113
REMARK   46  A    between atoms: _113  and  _114
REMARK   47  A    between atoms: _113  and  _116
REMARK   48  A    between atoms: _116  and  _117
REMARK   49  A    between atoms: _122  and  _123
REMARK   50  A    between atoms: _125  and  _127
REMARK   51  A    between atoms: _127  and  _128
REMARK   52  A    between atoms: _131  and  _133
REMARK   53  A    between atoms: _133  and  _134
REMARK   54  A    between atoms: _133  and  _136
REMARK   55  A    between atoms: _139  and  _141
REMARK   56  A    between atoms: _141  and  _142
REMARK   57  A    between atoms: _141  and  _144
REMARK   58  A    between atoms: _146  and  _148
REMARK   59  A    between atoms: _148  and  _149
REMARK   60  A    between atoms: _148  and  _151
REMARK   61  A    between atoms: _151  and  _152
REMARK   62  A    between atoms: _152  and  _153
REMARK   63  A    between atoms: _153  and  _154
REMARK   64  A    between atoms: _163  and  _165
REMARK   65  A    between atoms: _165  and  _166
REMARK   66  A    between atoms: _165  and  _168
REMARK   67  A    between atoms: _168  and  _169
REMARK   68  A    between atoms: _169  and  _170
REMARK   69  A    between atoms: _170  and  _171
REMARK   70  A    between atoms: _171  and  _172
REMARK   71  A    between atoms: _176  and  _178
REMARK   72  A    between atoms: _178  and  _179
REMARK   73  A    between atoms: _178  and  _181
REMARK   74  A    between atoms: _181  and  _182
REMARK   75  A    between atoms: _185  and  _187
REMARK   76  A    between atoms: _187  and  _188
REMARK   77  A    between atoms: _187  and  _190
REMARK   78  A    between atoms: _190  and  _191
REMARK   79  A    between atoms: _194  and  _196
REMARK   80  A    between atoms: _196  and  _197
REMARK   81  A    between atoms: _196  and  _199
REMARK   82  A    between atoms: _199  and  _200
REMARK   83  A    between atoms: _203  and  _205
REMARK   84  A    between atoms: _205  and  _206
REMARK   85  A    between atoms: _205  and  _208
REMARK   86  A    between atoms: _208  and  _209
REMARK   87  A    between atoms: _212  and  _214
REMARK   88  A    between atoms: _214  and  _215
REMARK   89  A    between atoms: _214  and  _217
REMARK   90  A    between atoms: _219  and  _221
REMARK   91  A    between atoms: _221  and  _222
REMARK   92  A    between atoms: _221  and  _224
REMARK   93  A    between atoms: _227  and  _229
REMARK   94  A    between atoms: _229  and  _230
REMARK   95  A    between atoms: _233  and  _235
REMARK   96  A    between atoms: _235  and  _236
REMARK   97  A    between atoms: _238  and  _240
REMARK   98  A    between atoms: _240  and  _241
REMARK   99  A    between atoms: _240  and  _243
REMARK  100  A    between atoms: _243  and  _244
REMARK  101  A    between atoms: _247  and  _249
REMARK  102  A    between atoms: _249  and  _250
REMARK  103  A    between atoms: _249  and  _252
REMARK  104  A    between atoms: _255  and  _257
REMARK  105  A    between atoms: _257  and  _258
REMARK  106  A    between atoms: _260  and  _262
REMARK  107  A    between atoms: _262  and  _263
REMARK  108  A    between atoms: _262  and  _265
REMARK  109  A    between atoms: _265  and  _266
REMARK  110  A    between atoms: _266  and  _267
REMARK  111  A    between atoms: _270  and  _272
REMARK  112  A    between atoms: _272  and  _273
REMARK  113  A    between atoms: _272  and  _275
REMARK  114  A    between atoms: _278  and  _280
REMARK  115  A    between atoms: _280  and  _281
REMARK  116  A    between atoms: _280  and  _283
REMARK  117  A    between atoms: _283  and  _284
REMARK  118  A    between atoms: _287  and  _289
REMARK  119  A    between atoms: _289  and  _290
REMARK  120  A    between atoms: _289  and  _292
REMARK  121  A    between atoms: _292  and  _293
REMARK  122  A    between atoms: _296  and  _298
REMARK  123  A    between atoms: _298  and  _299
REMARK  124  A    between atoms: _298  and  _301
REMARK  125  A    between atoms: _301  and  _302
REMARK  126  A    between atoms: _305  and  _307
REMARK  127  A    between atoms: _307  and  _308
REMARK  128  A    between atoms: _307  and  _310
REMARK  129  A    between atoms: _310  and  _311
REMARK  130  A    between atoms: _314  and  _316
REMARK  131  A    between atoms: _316  and  _317
REMARK  132  A    between atoms: _316  and  _319
REMARK  133  A    between atoms: _319  and  _320
REMARK  134  A    between atoms: _325  and  _326
REMARK  135  A    between atoms: _328  and  _330
REMARK  136  A    between atoms: _330  and  _331
REMARK  137  A    between atoms: _330  and  _333
REMARK  138  A    between atoms: _336  and  _338
REMARK  139  A    between atoms: _338  and  _339
REMARK  140  A    between atoms: _342  and  _344
REMARK  141  A    between atoms: _344  and  _345
REMARK  142  A    between atoms: _344  and  _347
REMARK  143  A    between atoms: _347  and  _348
REMARK  144  A    between atoms: _348  and  _349
REMARK  145  A    between atoms: _349  and  _350
REMARK  146  A    between atoms: _359  and  _361
REMARK  147  A    between atoms: _361  and  _362
REMARK  148  A    between atoms: _361  and  _364
REMARK  149  A    between atoms: _364  and  _365
REMARK  150  A    between atoms: _365  and  _366
REMARK  151  A    between atoms: _366  and  _367
REMARK  152  A    between atoms: _376  and  _378
REMARK  153  A    between atoms: _378  and  _379
REMARK  154  A    between atoms: _378  and  _381
REMARK  155  A    between atoms: _381  and  _382
REMARK  156  A    between atoms: _385  and  _387
REMARK  157  A    between atoms: _387  and  _388
REMARK  158  A    between atoms: _390  and  _392
REMARK  159  A    between atoms: _392  and  _393
REMARK  160  A    between atoms: _392  and  _395
REMARK  161  A    between atoms: _395  and  _396
REMARK  162  A    between atoms: _396  and  _397
REMARK  163  A    between atoms: _400  and  _402
REMARK  164  A    between atoms: _402  and  _403
REMARK  165  A    between atoms: _402  and  _405
REMARK  166  A    between atoms: _405  and  _406
REMARK  167  A    between atoms: _408  and  _410
REMARK  168  A    between atoms: _410  and  _411
REMARK  169  A    between atoms: _410  and  _413
REMARK  170  A    between atoms: _413  and  _414
REMARK  171  A    between atoms: _417  and  _419
REMARK  172  A    between atoms: _419  and  _420
REMARK  173  A    between atoms: _419  and  _422
REMARK  174  A    between atoms: _422  and  _423
REMARK  175  A    between atoms: _423  and  _424
REMARK  176  A    between atoms: _429  and  _431
REMARK  177  A    between atoms: _431  and  _432
REMARK  178  A    between atoms: _431  and  _434
REMARK  179  A    between atoms: _434  and  _435
REMARK  180  A    between atoms: _438  and  _440
REMARK  181  A    between atoms: _440  and  _441
REMARK  182  A    between atoms: _440  and  _443
REMARK  183  A    between atoms: _443  and  _444
REMARK  184  A    between atoms: _449  and  _451
REMARK  185  A    between atoms: _451  and  _452
REMARK  186  A    between atoms: _451  and  _454
REMARK  187  A    between atoms: _457  and  _459
REMARK  188  A    between atoms: _459  and  _460
REMARK  189  A    between atoms: _459  and  _462
REMARK  190  A    between atoms: _462  and  _463
REMARK  191  A    between atoms: _466  and  _468
REMARK  192  A    between atoms: _468  and  _469
REMARK  193  A    between atoms: _468  and  _471
REMARK  194  A    between atoms: _474  and  _476
REMARK  195  A    between atoms: _476  and  _477
REMARK  196  A    between atoms: _476  and  _479
REMARK  197  A    between atoms: _479  and  _480
REMARK  198  A    between atoms: _486  and  _488
REMARK  199  A    between atoms: _488  and  _489
REMARK  200  A    between atoms: _492  and  _494
REMARK  201  A    between atoms: _494  and  _495
REMARK  202  A    between atoms: _494  and  _497
REMARK  203  A    between atoms: _497  and  _498
REMARK  204  A    between atoms: _501  and  _503
REMARK  205  A    between atoms: _503  and  _504
REMARK  206  A    between atoms: _503  and  _506
REMARK  207  A    between atoms: _506  and  _507
REMARK  208  A    between atoms: _510  and  _512
REMARK  209  A    between atoms: _512  and  _513
REMARK  210  A    between atoms: _512  and  _515
REMARK  211  A    between atoms: _515  and  _516
REMARK  212  A    between atoms: _516  and  _517
REMARK  213  A    between atoms: _520  and  _522
REMARK  214  A    between atoms: _522  and  _523
REMARK  215  A    between atoms: _526  and  _528
REMARK  216  A    between atoms: _528  and  _529
REMARK  217  A    between atoms: _532  and  _534
REMARK  218  A    between atoms: _534  and  _535
REMARK  219  A    between atoms: _534  and  _537
REMARK  220  A    between atoms: _537  and  _538
REMARK  221  A    between atoms: _543  and  _544
REMARK                            x       y       z     vdW  Elec       q    Type
REMARK                         _______ _______ _______ _____ _____    ______ ____
ROOT
ATOM      1  CA  TYR A   2      53.118  26.712  47.710  0.00  0.00    +0.141 C 
ENDROOT
BRANCH   1   4
ATOM      2  C   THR A   1      54.941  27.952  48.729  0.00  0.00    +0.241 C 
ATOM      3  O   THR A   1      55.542  26.905  49.003  0.00  0.00    -0.274 OA
ATOM      4  N   TYR A   2      53.760  27.960  48.118  0.00  0.00    -0.298 N 
ATOM      5  H   TYR A   2      53.287  28.866  47.928  0.00  0.00    +0.150 HD
BRANCH   2   6
ATOM      6  CA  THR A   1      55.521  29.318  49.083  0.00  0.00    +0.172 C 
BRANCH   6   7
ATOM      7  N   THR A   1      55.394  30.217  47.936  0.00  0.00    -0.236 NA
ATOM      8  H   THR A   1      54.861  31.106  48.025  0.00  0.00    +0.142 HD
ENDBRANCH   6   7
BRANCH   6   9
ATOM      9  CB  THR A   1      54.739  29.861  50.282  0.00  0.00    +0.135 C 
ATOM     10  CG2 THR A   1      55.306  29.314  51.581  0.00  0.00    +0.034 C 
BRANCH   9  11
ATOM     11  OG1 THR A   1      54.783  31.295  50.264  0.00  0.00    -0.383 OA
ATOM     12  HG1 THR A   1      55.725  31.596  50.317  0.00  0.00    +0.210 HD
ENDBRANCH   9  11
ENDBRANCH   6   9
ENDBRANCH   2   6
ENDBRANCH   1   4
BRANCH   1  13
ATOM     13  C   TYR A   2      53.901  26.010  46.601  0.00  0.00    +0.227 C 
ATOM     14  O   TYR A   2      54.033  24.790  46.628  0.00  0.00    -0.286 OA
ENDBRANCH   1  13
BRANCH   1  15
ATOM     15  CB  TYR A   2      51.668  26.988  47.300  0.00  0.00    +0.054 C 
BRANCH  15  16
ATOM     16  CG  TYR A   2      50.725  27.305  48.441  0.00  0.00    -0.020 A 
ATOM     17  CD2 TYR A   2      50.212  26.281  49.244  0.00  0.00    -0.001 A 
ATOM     18  CE2 TYR A   2      49.324  26.538  50.273  0.00  0.00    +0.036 A 
ATOM     19  CZ  TYR A   2      48.926  27.842  50.507  0.00  0.00    +0.134 A 
ATOM     20  CE1 TYR A   2      49.384  28.881  49.702  0.00  0.00    +0.036 A 
ATOM     21  CD1 TYR A   2      50.295  28.607  48.682  0.00  0.00    -0.001 A 
BRANCH  19  22
ATOM     22  OH  TYR A   2      48.012  28.135  51.506  0.00  0.00    -0.506 OA
ATOM     23  HH  TYR A   2      47.779  27.305  51.993  0.00  0.00    +0.292 HD
ENDBRANCH  19  22
ENDBRANCH  15  16
ENDBRANCH   1  15
TORSDOF 9
REMARK  Name = ../refined-set-2016/3acx/3acx_pocket.pdb
REMARK  221 active torsions:
REMARK  status: ('A' for Active; 'I' for Inactive)
REMARK    1  A    between atoms: _1  and  _3
REMARK    2  A    between atoms: _3  and  _4
REMARK    3  A    between atoms: _3  and  _6
REMARK    4  A    between atoms: _6  and  _7
REMARK    5  A    between atoms: _10  and  _12
REMARK    6  A    between atoms: _12  and  _13
REMARK    7  A    between atoms: _12  and  _15
REMARK    8  A    between atoms: _15  and  _16
REMARK    9  A    between atoms: _16  and  _17
REMARK   10  A    between atoms: _19  and  _21
REMARK   11  A    between atoms: _21  and  _22
REMARK   12  A    between atoms: _21  and  _24
REMARK   13  A    between atoms: _24  and  _25
REMARK   14  A    between atoms: _30  and  _32
REMARK   15  A    between atoms: _32  and  _33
REMARK   16  A    between atoms: _32  and  _35
REMARK   17  A    between atoms: _35  and  _36
REMARK   18  A    between atoms: _38  and  _40
REMARK   19  A    between atoms: _40  and  _41
REMARK   20  A    between atoms: _40  and  _43
REMARK   21  A    between atoms: _43  and  _44
REMARK   22  A    between atoms: _46  and  _48
REMARK   23  A    between atoms: _48  and  _49
REMARK   24  A    between atoms: _48  and  _51
REMARK   25  A    between atoms: _51  and  _52
REMARK   26  A    between atoms: _58  and  _60
REMARK   27  A    between atoms: _60  and  _61
REMARK   28  A    between atoms: _60  and  _63
REMARK   29  A    between atoms: _63  and  _64
REMARK   30  A    between atoms: _66  and  _68
REMARK   31  A    between atoms: _68  and  _69
REMARK   32  A    between atoms: _68  and  _71
REMARK   33  A    between atoms: _71  and  _72
REMARK   34  A    between atoms: _78  and  _80
REMARK   35  A    between atoms: _80  and  _81
REMARK   36  A    between atoms: _80  and  _83
REMARK   37  A    between atoms: _86  and  _88
REMARK   38  A    between atoms: _88  and  _89
REMARK   39  A    between atoms: _88  and  _91
REMARK   40  A    between atoms: _91  and  _92
REMARK   41  A    between atoms: _102  and  _104
REMARK   42  A    between atoms: _104  and  _105
REMARK   43  A    between atoms: _104  and  _107
REMARK   44  A    between atoms: _107  and  _108
REMARK   45  A    between atoms: _111  and  _113
REMARK   46  A    between atoms: _113  and  _114
REMARK   47  A    between atoms: _113  and  _116
REMARK   48  A    between atoms: _116  and  _117
REMARK   49  A    between atoms: _122  and  _123
REMARK   50  A    between atoms: _125  and  _127
REMARK   51  A    between atoms: _127  and  _128
REMARK   52  A    between atoms: _131  and  _133
REMARK   53  A    between atoms: _133  and  _134
REMARK   54  A    between atoms: _133  and  _136
REMARK   55  A    between atoms: _139  and  _141
REMARK   56  A    between atoms: _141  and  _142
REMARK   57  A    between atoms: _141  and  _144
REMARK   58  A    between atoms: _146  and  _148
REMARK   59  A    between atoms: _148  and  _149
REMARK   60  A    between atoms: _148  and  _151
REMARK   61  A    between atoms: _151  and  _152
REMARK   62  A    between atoms: _152  and  _153
REMARK   63  A    between atoms: _153  and  _154
REMARK   64  A    between atoms: _163  and  _165
REMARK   65  A    between atoms: _165  and  _166
REMARK   66  A    between atoms: _165  and  _168
REMARK   67  A    between atoms: _168  and  _169
REMARK   68  A    between atoms: _169  and  _170
REMARK   69  A    between atoms: _170  and  _171
REMARK   70  A    between atoms: _171  and  _172
REMARK   71  A    between atoms: _176  and  _178
REMARK   72  A    between atoms: _178  and  _179
REMARK   73  A    between atoms: _178  and  _181
REMARK   74  A    between atoms: _181  and  _182
REMARK   75  A    between atoms: _185  and  _187
REMARK   76  A    between atoms: _187  and  _188
REMARK   77  A    between atoms: _187  and  _190
REMARK   78  A    between atoms: _190  and  _191
REMARK   79  A    between atoms: _194  and  _196
REMARK   80  A    between atoms: _196  and  _197
REMARK   81  A    between atoms: _196  and  _199
REMARK   82  A    between atoms: _199  and  _200
REMARK   83  A    between atoms: _203  and  _205
REMARK   84  A    between atoms: _205  and  _206
REMARK   85  A    between atoms: _205  and  _208
REMARK   86  A    between atoms: _208  and  _209
REMARK   87  A    between atoms: _212  and  _214
REMARK   88  A    between atoms: _214  and  _215
REMARK   89  A    between atoms: _214  and  _217
REMARK   90  A    between atoms: _219  and  _221
REMARK   91  A    between atoms: _221  and  _222
REMARK   92  A    between atoms: _221  and  _224
REMARK   93  A    between atoms: _227  and  _229
REMARK   94  A    between atoms: _229  and  _230
REMARK   95  A    between atoms: _233  and  _235
REMARK   96  A    between atoms: _235  and  _236
REMARK   97  A    between atoms: _238  and  _240
REMARK   98  A    between atoms: _240  and  _241
REMARK   99  A    between atoms: _240  and  _243
REMARK  100  A    between atoms: _243  and  _244
REMARK  101  A    between atoms: _247  and  _249
REMARK  102  A    between atoms: _249  and  _250
REMARK  103  A    between atoms: _249  and  _252
REMARK  104  A    between atoms: _255  and  _257
REMARK  105  A    between atoms: _257  and  _258
REMARK  106  A    between atoms: _260  and  _262
REMARK  107  A    between atoms: _262  and  _263
REMARK  108  A    between atoms: _262  and  _265
REMARK  109  A    between atoms: _265  and  _266
REMARK  110  A    between atoms: _266  and  _267
REMARK  111  A    between atoms: _270  and  _272
REMARK  112  A    between atoms: _272  and  _273
REMARK  113  A    between atoms: _272  and  _275
REMARK  114  A    between atoms: _278  and  _280
REMARK  115  A    between atoms: _280  and  _281
REMARK  116  A    between atoms: _280  and  _283
REMARK  117  A    between atoms: _283  and  _284
REMARK  118  A    between atoms: _287  and  _289
REMARK  119  A    between atoms: _289  and  _290
REMARK  120  A    between atoms: _289  and  _292
REMARK  121  A    between atoms: _292  and  _293
REMARK  122  A    between atoms: _296  and  _298
REMARK  123  A    between atoms: _298  and  _299
REMARK  124  A    between atoms: _298  and  _301
REMARK  125  A    between atoms: _301  and  _302
REMARK  126  A    between atoms: _305  and  _307
REMARK  127  A    between atoms: _307  and  _308
REMARK  128  A    between atoms: _307  and  _310
REMARK  129  A    between atoms: _310  and  _311
REMARK  130  A    between atoms: _314  and  _316
REMARK  131  A    between atoms: _316  and  _317
REMARK  132  A    between atoms: _316  and  _319
REMARK  133  A    between atoms: _319  and  _320
REMARK  134  A    between atoms: _325  and  _326
REMARK  135  A    between atoms: _328  and  _330
REMARK  136  A    between atoms: _330  and  _331
REMARK  137  A    between atoms: _330  and  _333
REMARK  138  A    between atoms: _336  and  _338
REMARK  139  A    between atoms: _338  and  _339
REMARK  140  A    between atoms: _342  and  _344
REMARK  141  A    between atoms: _344  and  _345
REMARK  142  A    between atoms: _344  and  _347
REMARK  143  A    between atoms: _347  and  _348
REMARK  144  A    between atoms: _348  and  _349
REMARK  145  A    between atoms: _349  and  _350
REMARK  146  A    between atoms: _359  and  _361
REMARK  147  A    between atoms: _361  and  _362
REMARK  148  A    between atoms: _361  and  _364
REMARK  149  A    between atoms: _364  and  _365
REMARK  150  A    between atoms: _365  and  _366
REMARK  151  A    between atoms: _366  and  _367
REMARK  152  A    between atoms: _376  and  _378
REMARK  153  A    between atoms: _378  and  _379
REMARK  154  A    between atoms: _378  and  _381
REMARK  155  A    between atoms: _381  and  _382
REMARK  156  A    between atoms: _385  and  _387
REMARK  157  A    between atoms: _387  and  _388
REMARK  158  A    between atoms: _390  and  _392
REMARK  159  A    between atoms: _392  and  _393
REMARK  160  A    between atoms: _392  and  _395
REMARK  161  A    between atoms: _395  and  _396
REMARK  162  A    between atoms: _396  and  _397
REMARK  163  A    between atoms: _400  and  _402
REMARK  164  A    between atoms: _402  and  _403
REMARK  165  A    between atoms: _402  and  _405
REMARK  166  A    between atoms: _405  and  _406
REMARK  167  A    between atoms: _408  and  _410
REMARK  168  A    between atoms: _410  and  _411
REMARK  169  A    between atoms: _410  and  _413
REMARK  170  A    between atoms: _413  and  _414
REMARK  171  A    between atoms: _417  and  _419
REMARK  172  A    between atoms: _419  and  _420
REMARK  173  A    between atoms: _419  and  _422
REMARK  174  A    between atoms: _422  and  _423
REMARK  175  A    between atoms: _423  and  _424
REMARK  176  A    between atoms: _429  and  _431
REMARK  177  A    between atoms: _431  and  _432
REMARK  178  A    between atoms: _431  and  _434
REMARK  179  A    between atoms: _434  and  _435
REMARK  180  A    between atoms: _438  and  _440
REMARK  181  A    between atoms: _440  and  _441
REMARK  182  A    between atoms: _440  and  _443
REMARK  183  A    between atoms: _443  and  _444
REMARK  184  A    between atoms: _449  and  _451
REMARK  185  A    between atoms: _451  and  _452
REMARK  186  A    between atoms: _451  and  _454
REMARK  187  A    between atoms: _457  and  _459
REMARK  188  A    between atoms: _459  and  _460
REMARK  189  A    between atoms: _459  and  _462
REMARK  190  A    between atoms: _462  and  _463
REMARK  191  A    between atoms: _466  and  _468
REMARK  192  A    between atoms: _468  and  _469
REMARK  193  A    between atoms: _468  and  _471
REMARK  194  A    between atoms: _474  and  _476
REMARK  195  A    between atoms: _476  and  _477
REMARK  196  A    between atoms: _476  and  _479
REMARK  197  A    between atoms: _479  and  _480
REMARK  198  A    between atoms: _486  and  _488
REMARK  199  A    between atoms: _488  and  _489
REMARK  200  A    between atoms: _492  and  _494
REMARK  201  A    between atoms: _494  and  _495
REMARK  202  A    between atoms: _494  and  _497
REMARK  203  A    between atoms: _497  and  _498
REMARK  204  A    between atoms: _501  and  _503
REMARK  205  A    between atoms: _503  and  _504
REMARK  206  A    between atoms: _503  and  _506
REMARK  207  A    between atoms: _506  and  _507
REMARK  208  A    between atoms: _510  and  _512
REMARK  209  A    between atoms: _512  and  _513
REMARK  210  A    between atoms: _512  and  _515
REMARK  211  A    between atoms: _515  and  _516
REMARK  212  A    between atoms: _516  and  _517
REMARK  213  A    between atoms: _520  and  _522
REMARK  214  A    between atoms: _522  and  _523
REMARK  215  A    between atoms: _526  and  _528
REMARK  216  A    between atoms: _528  and  _529
REMARK  217  A    between atoms: _532  and  _534
REMARK  218  A    between atoms: _534  and  _535
REMARK  219  A    between atoms: _534  and  _537
REMARK  220  A    between atoms: _537  and  _538
REMARK  221  A    between atoms: _543  and  _544
REMARK                            x       y       z     vdW  Elec       q    Type
REMARK                         _______ _______ _______ _____ _____    ______ ____
ROOT
ATOM      1  CA  LEU A   5      60.000  19.735  48.065  0.00  0.00    +0.149 C 
ENDROOT
BRANCH   1   3
ATOM      2  C   ARG A   4      59.327  20.100  45.796  0.00  0.00    +0.241 C 
ATOM      3  N   LEU A   5      59.347  20.547  47.048  0.00  0.00    -0.297 N 
ATOM      4  H   LEU A   5      58.906  21.456  47.295  0.00  0.00    +0.150 HD
ATOM      5  O   ARG A   4      59.862  19.047  45.450  0.00  0.00    -0.273 OA
BRANCH   2   6
ATOM      6  CA  ARG A   4      58.559  20.929  44.780  0.00  0.00    +0.149 C 
BRANCH   6   9
ATOM      7  C   ARG A   3      56.371  20.577  45.709  0.00  0.00    +0.241 C 
ATOM      8  O   ARG A   3      56.456  19.364  45.608  0.00  0.00    -0.273 OA
ATOM      9  N   ARG A   4      57.322  21.422  45.325  0.00  0.00    -0.297 N 
ATOM     10  H   ARG A   4      57.171  22.447  45.419  0.00  0.00    +0.150 HD
BRANCH   7  11
ATOM     11  CA  ARG A   3      55.100  21.189  46.208  0.00  0.00    +0.149 C 
BRANCH  11  14
ATOM     12  C   ALA A   2      56.090  22.032  48.294  0.00  0.00    +0.241 C 
ATOM     13  O   ALA A   2      56.423  20.898  48.677  0.00  0.00    -0.273 OA
ATOM     14  N   ARG A   3      55.408  22.258  47.169  0.00  0.00    -0.297 N 
ATOM     15  H   ARG A   3      55.083  23.225  46.965  0.00  0.00    +0.150 HD
BRANCH  12  16
ATOM     16  CA  ALA A   2      56.438  23.231  49.159  0.00  0.00    +0.149 C 
ATOM     17  CB  ALA A   2      55.256  23.617  50.007  0.00  0.00    +0.031 C 
BRANCH  16  19
ATOM     18  C   VAL A   1      57.994  24.303  47.612  0.00  0.00    +0.238 C 
ATOM     19  N   ALA A   2      56.877  24.364  48.338  0.00  0.00    -0.297 N 
ATOM     20  H   ALA A   2      56.306  25.233  48.322  0.00  0.00    +0.150 HD
ATOM     21  O   VAL A   1      58.683  23.283  47.557  0.00  0.00    -0.274 OA
BRANCH  18  22
ATOM     22  CA  VAL A   1      58.347  25.542  46.774  0.00  0.00    +0.145 C 
BRANCH  22  23
ATOM     23  CB  VAL A   1      59.078  26.614  47.610  0.00  0.00    +0.025 C 
ATOM     24  CG2 VAL A   1      60.242  26.025  48.398  0.00  0.00    +0.002 C 
ATOM     25  CG1 VAL A   1      59.615  27.737  46.720  0.00  0.00    +0.002 C 
ENDBRANCH  22  23
BRANCH  22  26
ATOM     26  N   VAL A   1      57.138  26.102  46.157  0.00  0.00    -0.238 NA
ATOM     27  H   VAL A   1      56.791  27.034  46.461  0.00  0.00    +0.142 HD
ENDBRANCH  22  26
ENDBRANCH  18  22
ENDBRANCH  16  19
ENDBRANCH  12  16
ENDBRANCH  11  14
BRANCH  11  28
ATOM     28  CB  ARG A   3      54.293  21.617  44.963  0.00  0.00    +0.033 C 
BRANCH  28  29
ATOM     29  CG  ARG A   3      52.824  21.540  45.093  0.00  0.00    +0.045 C 
BRANCH  29  30
ATOM     30  CD  ARG A   3      52.063  21.962  43.853  0.00  0.00    +0.174 C 
BRANCH  30  31
ATOM     31  NE  ARG A   3      52.282  23.302  43.344  0.00  0.00    -0.265 N 
ATOM     32  CZ  ARG A   3      51.658  24.443  43.639  0.00  0.00    +0.342 C 
ATOM     33  NH2 ARG A   3      50.640  24.553  44.474  0.00  0.00    -0.292 N 
ATOM     34 HH21 ARG A   3      50.270  23.709  44.956  0.00  0.00    +0.255 HD
ATOM     35 HH22 ARG A   3      50.209  25.483  44.649  0.00  0.00    +0.255 HD
ATOM     36  NH1 ARG A   3      52.003  25.533  42.959  0.00  0.00    -0.292 N 
ATOM     37 HH11 ARG A   3      51.538  26.441  43.161  0.00  0.00    +0.255 HD
ATOM     38 HH12 ARG A   3      52.738  25.477  42.225  0.00  0.00    +0.255 HD
ATOM     39  HE  ARG A   3      53.043  23.386  42.640  0.00  0.00    +0.259 HD
ENDBRANCH  30  31
ENDBRANCH  29  30
ENDBRANCH  28  29
ENDBRANCH  11  28
ENDBRANCH   7  11
ENDBRANCH   6   9
BRANCH   6  40
ATOM     40  CB  ARG A   4      59.392  22.097  44.264  0.00  0.00    +0.033 C 
BRANCH  40  41
ATOM     41  CG  ARG A   4      60.734  21.708  43.680  0.00  0.00    +0.045 C 
BRANCH  41  42
ATOM     42  CD  ARG A   4      60.735  21.102  42.275  0.00  0.00    +0.174 C 
BRANCH  42  43
ATOM     43  NE  ARG A   4      60.166  21.923  41.207  0.00  0.00    -0.265 N 
ATOM     44  HE  ARG A   4      59.868  22.892  41.438  0.00  0.00    +0.259 HD
ATOM     45  CZ  ARG A   4      60.008  21.497  39.952  0.00  0.00    +0.342 C 
ATOM     46  NH2 ARG A   4      60.366  20.265  39.609  0.00  0.00    -0.292 N 
ATOM     47 HH21 ARG A   4      60.773  19.625  40.320  0.00  0.00    +0.255 HD
ATOM     48 HH22 ARG A   4      60.240  19.941  38.629  0.00  0.00    +0.255 HD
ATOM     49  NH1 ARG A   4      59.475  22.285  39.025  0.00  0.00    -0.292 N 
ATOM     50 HH11 ARG A   4      59.174  23.249  39.273  0.00  0.00    +0.255 HD
ATOM     51 HH12 ARG A   4      59.359  21.938  38.052  0.00  0.00    +0.255 HD
ENDBRANCH  42  43
ENDBRANCH  41  42
ENDBRANCH  40  41
ENDBRANCH   6  40
ENDBRANCH   2   6
ENDBRANCH   1   3
BRANCH   1  52
ATOM     52  C   LEU A   5      59.285  18.402  48.228  0.00  0.00    +0.241 C 
ATOM     53  O   LEU A   5      59.910  17.349  48.295  0.00  0.00    -0.273 OA
ATOM     54  N   GLY A   6      57.956  18.430  48.277  0.00  0.00    -0.295 N 
ATOM     55  H   GLY A   6      57.450  19.337  48.224  0.00  0.00    +0.150 HD
BRANCH  54  56
ATOM     56  CA  GLY A   6      57.212  17.182  48.406  0.00  0.00    +0.176 C 
BRANCH  56  57
ATOM     57  C   GLY A   6      57.541  16.224  47.289  0.00  0.00    +0.243 C 
ATOM     58  O   GLY A   6      57.743  15.023  47.494  0.00  0.00    -0.273 OA
ATOM     59  N   GLU A   7      57.653  16.744  46.078  0.00  0.00    -0.297 N 
ATOM     60  H   GLU A   7      57.501  17.761  45.925  0.00  0.00    +0.150 HD
BRANCH  59  61
ATOM     61  CA  GLU A   7      57.987  15.886  44.980  0.00  0.00    +0.149 C 
BRANCH  61  62
ATOM     62  C   GLU A   7      59.411  15.281  45.065  0.00  0.00    +0.241 C 
ATOM     63  N   SER A   8      60.379  16.061  45.538  0.00  0.00    -0.295 N 
ATOM     64  H   SER A   8      60.165  17.062  45.722  0.00  0.00    +0.150 HD
ATOM     65  O   GLU A   7      59.617  14.083  44.804  0.00  0.00    -0.273 OA
BRANCH  63  66
ATOM     66  CA  SER A   8      61.727  15.575  45.810  0.00  0.00    +0.178 C 
BRANCH  66  67
ATOM     67  C   SER A   8      61.656  14.436  46.804  0.00  0.00    +0.243 C 
ATOM     68  N   LEU A   9      60.929  14.652  47.898  0.00  0.00    -0.297 N 
ATOM     69  H   LEU A   9      60.407  15.545  48.001  0.00  0.00    +0.150 HD
ATOM     70  O   SER A   8      62.299  13.408  46.612  0.00  0.00    -0.273 OA
BRANCH  68  71
ATOM     71  CA  LEU A   9      60.858  13.651  48.950  0.00  0.00    +0.149 C 
BRANCH  71  72
ATOM     72  C   LEU A   9      60.215  12.376  48.439  0.00  0.00    +0.241 C 
ATOM     73  O   LEU A   9      60.682  11.285  48.767  0.00  0.00    -0.273 OA
ATOM     74  N   GLN A  10      59.179  12.487  47.613  0.00  0.00    -0.297 N 
ATOM     75  H   GLN A  10      58.814  13.424  47.346  0.00  0.00    +0.150 HD
BRANCH  74  76
ATOM     76  CA  GLN A  10      58.562  11.274  47.087  0.00  0.00    +0.149 C 
BRANCH  76  77
ATOM     77  C   GLN A  10      59.484  10.546  46.120  0.00  0.00    +0.241 C 
ATOM     78  O   GLN A  10      59.543   9.321  46.134  0.00  0.00    -0.273 OA
ATOM     79  N   LEU A  11      60.202  11.293  45.280  0.00  0.00    -0.298 N 
ATOM     80  H   LEU A  11      60.085  12.326  45.262  0.00  0.00    +0.150 HD
BRANCH  79  81
ATOM     81  CA  LEU A  11      61.151  10.643  44.389  0.00  0.00    +0.137 C 
BRANCH  81  82
ATOM     82  C   LEU A  11      62.227   9.916  45.178  0.00  0.00    +0.227 C 
ATOM     83  O   LEU A  11      62.652   8.818  44.805  0.00  0.00    -0.286 OA
ENDBRANCH  81  82
BRANCH  81  84
ATOM     84  CB  LEU A  11      61.797  11.670  43.484  0.00  0.00    +0.028 C 
BRANCH  84  85
ATOM     85  CG  LEU A  11      61.022  12.045  42.239  0.00  0.00    +0.002 C 
ATOM     86  CD2 LEU A  11      61.935  12.975  41.491  0.00  0.00    +0.000 C 
ATOM     87  CD1 LEU A  11      60.667  10.838  41.358  0.00  0.00    +0.000 C 
ENDBRANCH  84  85
ENDBRANCH  81  84
ENDBRANCH  79  81
ENDBRANCH  76  77
BRANCH  76  88
ATOM     88  CB  GLN A  10      57.216  11.551  46.435  0.00  0.00    +0.039 C 
BRANCH  88  89
ATOM     89  CG  GLN A  10      56.420  10.282  46.119  0.00  0.00    +0.087 C 
BRANCH  89  90
ATOM     90  CD  GLN A  10      56.102   9.516  47.376  0.00  0.00    +0.219 C 
ATOM     91  OE1 GLN A  10      55.934  10.118  48.436  0.00  0.00    -0.275 OA
ATOM     92  NE2 GLN A  10      55.997   8.198  47.276  0.00  0.00    -0.329 N 
ATOM     93 HE21 GLN A  10      55.764   7.630  48.115  0.00  0.00    +0.145 HD
ATOM     94 HE22 GLN A  10      56.148   7.732  46.358  0.00  0.00    +0.145 HD
ENDBRANCH  89  90
ENDBRANCH  88  89
ENDBRANCH  76  88
ENDBRANCH  74  76
ENDBRANCH  71  72
BRANCH  71  95
ATOM     95  CB  LEU A   9      60.079  14.204  50.141  0.00  0.00    +0.029 C 
BRANCH  95  96
ATOM     96  CG  LEU A   9      60.694  15.428  50.827  0.00  0.00    +0.002 C 
ATOM     97  CD2 LEU A   9      59.741  15.974  51.894  0.00  0.00    +0.000 C 
ATOM     98  CD1 LEU A   9      62.062  15.121  51.422  0.00  0.00    +0.000 C 
ENDBRANCH  95  96
ENDBRANCH  71  95
ENDBRANCH  68  71
ENDBRANCH  66  67
BRANCH  66  99
ATOM     99  CB  SER A   8      62.629  16.696  46.378  0.00  0.00    +0.166 C 
BRANCH  99 100
ATOM    100  OG  SER A   8      63.976  16.240  46.651  0.00  0.00    -0.380 OA
ATOM    101  H   SER A   8      64.388  15.912  45.813  0.00  0.00    +0.211 HD
ENDBRANCH  99 100
ENDBRANCH  66  99
ENDBRANCH  63  66
ENDBRANCH  61  62
BRANCH  61 102
ATOM    102  CB  GLU A   7      57.517  16.632  43.729  0.00  0.00    +0.041 C 
BRANCH 102 103
ATOM    103  CG  GLU A   7      55.994  16.948  43.830  0.00  0.00    +0.116 C 
BRANCH 103 104
ATOM    104  CD  GLU A   7      55.464  17.808  42.699  0.00  0.00    +0.365 C 
ATOM    105  OE2 GLU A   7      54.401  18.442  42.880  0.00  0.00    -0.246 OA
ATOM    106  OE1 GLU A   7      56.105  17.842  41.623  0.00  0.00    -0.246 OA
ENDBRANCH 103 104
ENDBRANCH 102 103
ENDBRANCH  61 102
ENDBRANCH  59  61
ENDBRANCH  56  57
ENDBRANCH  54  56
ENDBRANCH   1  52
BRANCH   1 107
ATOM    107  CB  LEU A   5      60.084  20.462  49.409  0.00  0.00    +0.029 C 
BRANCH 107 108
ATOM    108  CG  LEU A   5      60.807  19.645  50.484  0.00  0.00    +0.002 C 
ATOM    109  CD2 LEU A   5      60.886  20.460  51.759  0.00  0.00    +0.000 C 
ATOM    110  CD1 LEU A   5      62.184  19.211  50.053  0.00  0.00    +0.000 C 
ENDBRANCH 107 108
ENDBRANCH   1 107
TORSDOF 45
REMARK  Name = ../refined-set-2016/3acx/3acx_pocket.pdb
REMARK  221 active torsions:
REMARK  status: ('A' for Active; 'I' for Inactive)
REMARK    1  A    between atoms: _1  and  _3
REMARK    2  A    between atoms: _3  and  _4
REMARK    3  A    between atoms: _3  and  _6
REMARK    4  A    between atoms: _6  and  _7
REMARK    5  A    between atoms: _10  and  _12
REMARK    6  A    between atoms: _12  and  _13
REMARK    7  A    between atoms: _12  and  _15
REMARK    8  A    between atoms: _15  and  _16
REMARK    9  A    between atoms: _16  and  _17
REMARK   10  A    between atoms: _19  and  _21
REMARK   11  A    between atoms: _21  and  _22
REMARK   12  A    between atoms: _21  and  _24
REMARK   13  A    between atoms: _24  and  _25
REMARK   14  A    between atoms: _30  and  _32
REMARK   15  A    between atoms: _32  and  _33
REMARK   16  A    between atoms: _32  and  _35
REMARK   17  A    between atoms: _35  and  _36
REMARK   18  A    between atoms: _38  and  _40
REMARK   19  A    between atoms: _40  and  _41
REMARK   20  A    between atoms: _40  and  _43
REMARK   21  A    between atoms: _43  and  _44
REMARK   22  A    between atoms: _46  and  _48
REMARK   23  A    between atoms: _48  and  _49
REMARK   24  A    between atoms: _48  and  _51
REMARK   25  A    between atoms: _51  and  _52
REMARK   26  A    between atoms: _58  and  _60
REMARK   27  A    between atoms: _60  and  _61
REMARK   28  A    between atoms: _60  and  _63
REMARK   29  A    between atoms: _63  and  _64
REMARK   30  A    between atoms: _66  and  _68
REMARK   31  A    between atoms: _68  and  _69
REMARK   32  A    between atoms: _68  and  _71
REMARK   33  A    between atoms: _71  and  _72
REMARK   34  A    between atoms: _78  and  _80
REMARK   35  A    between atoms: _80  and  _81
REMARK   36  A    between atoms: _80  and  _83
REMARK   37  A    between atoms: _86  and  _88
REMARK   38  A    between atoms: _88  and  _89
REMARK   39  A    between atoms: _88  and  _91
REMARK   40  A    between atoms: _91  and  _92
REMARK   41  A    between atoms: _102  and  _104
REMARK   42  A    between atoms: _104  and  _105
REMARK   43  A    between atoms: _104  and  _107
REMARK   44  A    between atoms: _107  and  _108
REMARK   45  A    between atoms: _111  and  _113
REMARK   46  A    between atoms: _113  and  _114
REMARK   47  A    between atoms: _113  and  _116
REMARK   48  A    between atoms: _116  and  _117
REMARK   49  A    between atoms: _122  and  _123
REMARK   50  A    between atoms: _125  and  _127
REMARK   51  A    between atoms: _127  and  _128
REMARK   52  A    between atoms: _131  and  _133
REMARK   53  A    between atoms: _133  and  _134
REMARK   54  A    between atoms: _133  and  _136
REMARK   55  A    between atoms: _139  and  _141
REMARK   56  A    between atoms: _141  and  _142
REMARK   57  A    between atoms: _141  and  _144
REMARK   58  A    between atoms: _146  and  _148
REMARK   59  A    between atoms: _148  and  _149
REMARK   60  A    between atoms: _148  and  _151
REMARK   61  A    between atoms: _151  and  _152
REMARK   62  A    between atoms: _152  and  _153
REMARK   63  A    between atoms: _153  and  _154
REMARK   64  A    between atoms: _163  and  _165
REMARK   65  A    between atoms: _165  and  _166
REMARK   66  A    between atoms: _165  and  _168
REMARK   67  A    between atoms: _168  and  _169
REMARK   68  A    between atoms: _169  and  _170
REMARK   69  A    between atoms: _170  and  _171
REMARK   70  A    between atoms: _171  and  _172
REMARK   71  A    between atoms: _176  and  _178
REMARK   72  A    between atoms: _178  and  _179
REMARK   73  A    between atoms: _178  and  _181
REMARK   74  A    between atoms: _181  and  _182
REMARK   75  A    between atoms: _185  and  _187
REMARK   76  A    between atoms: _187  and  _188
REMARK   77  A    between atoms: _187  and  _190
REMARK   78  A    between atoms: _190  and  _191
REMARK   79  A    between atoms: _194  and  _196
REMARK   80  A    between atoms: _196  and  _197
REMARK   81  A    between atoms: _196  and  _199
REMARK   82  A    between atoms: _199  and  _200
REMARK   83  A    between atoms: _203  and  _205
REMARK   84  A    between atoms: _205  and  _206
REMARK   85  A    between atoms: _205  and  _208
REMARK   86  A    between atoms: _208  and  _209
REMARK   87  A    between atoms: _212  and  _214
REMARK   88  A    between atoms: _214  and  _215
REMARK   89  A    between atoms: _214  and  _217
REMARK   90  A    between atoms: _219  and  _221
REMARK   91  A    between atoms: _221  and  _222
REMARK   92  A    between atoms: _221  and  _224
REMARK   93  A    between atoms: _227  and  _229
REMARK   94  A    between atoms: _229  and  _230
REMARK   95  A    between atoms: _233  and  _235
REMARK   96  A    between atoms: _235  and  _236
REMARK   97  A    between atoms: _238  and  _240
REMARK   98  A    between atoms: _240  and  _241
REMARK   99  A    between atoms: _240  and  _243
REMARK  100  A    between atoms: _243  and  _244
REMARK  101  A    between atoms: _247  and  _249
REMARK  102  A    between atoms: _249  and  _250
REMARK  103  A    between atoms: _249  and  _252
REMARK  104  A    between atoms: _255  and  _257
REMARK  105  A    between atoms: _257  and  _258
REMARK  106  A    between atoms: _260  and  _262
REMARK  107  A    between atoms: _262  and  _263
REMARK  108  A    between atoms: _262  and  _265
REMARK  109  A    between atoms: _265  and  _266
REMARK  110  A    between atoms: _266  and  _267
REMARK  111  A    between atoms: _270  and  _272
REMARK  112  A    between atoms: _272  and  _273
REMARK  113  A    between atoms: _272  and  _275
REMARK  114  A    between atoms: _278  and  _280
REMARK  115  A    between atoms: _280  and  _281
REMARK  116  A    between atoms: _280  and  _283
REMARK  117  A    between atoms: _283  and  _284
REMARK  118  A    between atoms: _287  and  _289
REMARK  119  A    between atoms: _289  and  _290
REMARK  120  A    between atoms: _289  and  _292
REMARK  121  A    between atoms: _292  and  _293
REMARK  122  A    between atoms: _296  and  _298
REMARK  123  A    between atoms: _298  and  _299
REMARK  124  A    between atoms: _298  and  _301
REMARK  125  A    between atoms: _301  and  _302
REMARK  126  A    between atoms: _305  and  _307
REMARK  127  A    between atoms: _307  and  _308
REMARK  128  A    between atoms: _307  and  _310
REMARK  129  A    between atoms: _310  and  _311
REMARK  130  A    between atoms: _314  and  _316
REMARK  131  A    between atoms: _316  and  _317
REMARK  132  A    between atoms: _316  and  _319
REMARK  133  A    between atoms: _319  and  _320
REMARK  134  A    between atoms: _325  and  _326
REMARK  135  A    between atoms: _328  and  _330
REMARK  136  A    between atoms: _330  and  _331
REMARK  137  A    between atoms: _330  and  _333
REMARK  138  A    between atoms: _336  and  _338
REMARK  139  A    between atoms: _338  and  _339
REMARK  140  A    between atoms: _342  and  _344
REMARK  141  A    between atoms: _344  and  _345
REMARK  142  A    between atoms: _344  and  _347
REMARK  143  A    between atoms: _347  and  _348
REMARK  144  A    between atoms: _348  and  _349
REMARK  145  A    between atoms: _349  and  _350
REMARK  146  A    between atoms: _359  and  _361
REMARK  147  A    between atoms: _361  and  _362
REMARK  148  A    between atoms: _361  and  _364
REMARK  149  A    between atoms: _364  and  _365
REMARK  150  A    between atoms: _365  and  _366
REMARK  151  A    between atoms: _366  and  _367
REMARK  152  A    between atoms: _376  and  _378
REMARK  153  A    between atoms: _378  and  _379
REMARK  154  A    between atoms: _378  and  _381
REMARK  155  A    between atoms: _381  and  _382
REMARK  156  A    between atoms: _385  and  _387
REMARK  157  A    between atoms: _387  and  _388
REMARK  158  A    between atoms: _390  and  _392
REMARK  159  A    between atoms: _392  and  _393
REMARK  160  A    between atoms: _392  and  _395
REMARK  161  A    between atoms: _395  and  _396
REMARK  162  A    between atoms: _396  and  _397
REMARK  163  A    between atoms: _400  and  _402
REMARK  164  A    between atoms: _402  and  _403
REMARK  165  A    between atoms: _402  and  _405
REMARK  166  A    between atoms: _405  and  _406
REMARK  167  A    between atoms: _408  and  _410
REMARK  168  A    between atoms: _410  and  _411
REMARK  169  A    between atoms: _410  and  _413
REMARK  170  A    between atoms: _413  and  _414
REMARK  171  A    between atoms: _417  and  _419
REMARK  172  A    between atoms: _419  and  _420
REMARK  173  A    between atoms: _419  and  _422
REMARK  174  A    between atoms: _422  and  _423
REMARK  175  A    between atoms: _423  and  _424
REMARK  176  A    between atoms: _429  and  _431
REMARK  177  A    between atoms: _431  and  _432
REMARK  178  A    between atoms: _431  and  _434
REMARK  179  A    between atoms: _434  and  _435
REMARK  180  A    between atoms: _438  and  _440
REMARK  181  A    between atoms: _440  and  _441
REMARK  182  A    between atoms: _440  and  _443
REMARK  183  A    between atoms: _443  and  _444
REMARK  184  A    between atoms: _449  and  _451
REMARK  185  A    between atoms: _451  and  _452
REMARK  186  A    between atoms: _451  and  _454
REMARK  187  A    between atoms: _457  and  _459
REMARK  188  A    between atoms: _459  and  _460
REMARK  189  A    between atoms: _459  and  _462
REMARK  190  A    between atoms: _462  and  _463
REMARK  191  A    between atoms: _466  and  _468
REMARK  192  A    between atoms: _468  and  _469
REMARK  193  A    between atoms: _468  and  _471
REMARK  194  A    between atoms: _474  and  _476
REMARK  195  A    between atoms: _476  and  _477
REMARK  196  A    between atoms: _476  and  _479
REMARK  197  A    between atoms: _479  and  _480
REMARK  198  A    between atoms: _486  and  _488
REMARK  199  A    between atoms: _488  and  _489
REMARK  200  A    between atoms: _492  and  _494
REMARK  201  A    between atoms: _494  and  _495
REMARK  202  A    between atoms: _494  and  _497
REMARK  203  A    between atoms: _497  and  _498
REMARK  204  A    between atoms: _501  and  _503
REMARK  205  A    between atoms: _503  and  _504
REMARK  206  A    between atoms: _503  and  _506
REMARK  207  A    between atoms: _506  and  _507
REMARK  208  A    between atoms: _510  and  _512
REMARK  209  A    between atoms: _512  and  _513
REMARK  210  A    between atoms: _512  and  _515
REMARK  211  A    between atoms: _515  and  _516
REMARK  212  A    between atoms: _516  and  _517
REMARK  213  A    between atoms: _520  and  _522
REMARK  214  A    between atoms: _522  and  _523
REMARK  215  A    between atoms: _526  and  _528
REMARK  216  A    between atoms: _528  and  _529
REMARK  217  A    between atoms: _532  and  _534
REMARK  218  A    between atoms: _534  and  _535
REMARK  219  A    between atoms: _534  and  _537
REMARK  220  A    between atoms: _537  and  _538
REMARK  221  A    between atoms: _543  and  _544
REMARK                            x       y       z     vdW  Elec       q    Type
REMARK                         _______ _______ _______ _____ _____    ______ ____
ROOT
ATOM      1  CB  ASN A   1      59.709   7.759  48.981  0.00  0.00    +0.110 C 
ENDROOT
BRANCH   1   2
ATOM      2  CG  ASN A   1      59.350   7.689  50.408  0.00  0.00    +0.221 C 
ATOM      3  ND2 ASN A   1      60.228   8.181  51.240  0.00  0.00    -0.329 N 
ATOM      4 HD21 ASN A   1      60.014   8.223  52.257  0.00  0.00    +0.145 HD
ATOM      5 HD22 ASN A   1      61.141   8.531  50.886  0.00  0.00    +0.145 HD
ATOM      6  OD1 ASN A   1      58.247   7.257  50.765  0.00  0.00    -0.275 OA
ENDBRANCH   1   2
BRANCH   1   7
ATOM      7  CA  ASN A   1      61.164   7.397  48.666  0.00  0.00    +0.142 C 
BRANCH   7   8
ATOM      8  N   ASN A   1      61.855   8.595  48.192  0.00  0.00    -0.239 NA
ATOM      9  H   ASN A   1      61.362   9.510  48.228  0.00  0.00    +0.142 HD
ENDBRANCH   7   8
BRANCH   7  10
ATOM     10  C   ASN A   1      61.150   6.313  47.589  0.00  0.00    +0.225 C 
ATOM     11  O   ASN A   1      61.469   5.160  47.844  0.00  0.00    -0.287 OA
ENDBRANCH   7  10
ENDBRANCH   1   7
TORSDOF 4
REMARK  Name = ../refined-set-2016/3acx/3acx_pocket.pdb
REMARK  221 active torsions:
REMARK  status: ('A' for Active; 'I' for Inactive)
REMARK    1  A    between atoms: _1  and  _3
REMARK    2  A    between atoms: _3  and  _4
REMARK    3  A    between atoms: _3  and  _6
REMARK    4  A    between atoms: _6  and  _7
REMARK    5  A    between atoms: _10  and  _12
REMARK    6  A    between atoms: _12  and  _13
REMARK    7  A    between atoms: _12  and  _15
REMARK    8  A    between atoms: _15  and  _16
REMARK    9  A    between atoms: _16  and  _17
REMARK   10  A    between atoms: _19  and  _21
REMARK   11  A    between atoms: _21  and  _22
REMARK   12  A    between atoms: _21  and  _24
REMARK   13  A    between atoms: _24  and  _25
REMARK   14  A    between atoms: _30  and  _32
REMARK   15  A    between atoms: _32  and  _33
REMARK   16  A    between atoms: _32  and  _35
REMARK   17  A    between atoms: _35  and  _36
REMARK   18  A    between atoms: _38  and  _40
REMARK   19  A    between atoms: _40  and  _41
REMARK   20  A    between atoms: _40  and  _43
REMARK   21  A    between atoms: _43  and  _44
REMARK   22  A    between atoms: _46  and  _48
REMARK   23  A    between atoms: _48  and  _49
REMARK   24  A    between atoms: _48  and  _51
REMARK   25  A    between atoms: _51  and  _52
REMARK   26  A    between atoms: _58  and  _60
REMARK   27  A    between atoms: _60  and  _61
REMARK   28  A    between atoms: _60  and  _63
REMARK   29  A    between atoms: _63  and  _64
REMARK   30  A    between atoms: _66  and  _68
REMARK   31  A    between atoms: _68  and  _69
REMARK   32  A    between atoms: _68  and  _71
REMARK   33  A    between atoms: _71  and  _72
REMARK   34  A    between atoms: _78  and  _80
REMARK   35  A    between atoms: _80  and  _81
REMARK   36  A    between atoms: _80  and  _83
REMARK   37  A    between atoms: _86  and  _88
REMARK   38  A    between atoms: _88  and  _89
REMARK   39  A    between atoms: _88  and  _91
REMARK   40  A    between atoms: _91  and  _92
REMARK   41  A    between atoms: _102  and  _104
REMARK   42  A    between atoms: _104  and  _105
REMARK   43  A    between atoms: _104  and  _107
REMARK   44  A    between atoms: _107  and  _108
REMARK   45  A    between atoms: _111  and  _113
REMARK   46  A    between atoms: _113  and  _114
REMARK   47  A    between atoms: _113  and  _116
REMARK   48  A    between atoms: _116  and  _117
REMARK   49  A    between atoms: _122  and  _123
REMARK   50  A    between atoms: _125  and  _127
REMARK   51  A    between atoms: _127  and  _128
REMARK   52  A    between atoms: _131  and  _133
REMARK   53  A    between atoms: _133  and  _134
REMARK   54  A    between atoms: _133  and  _136
REMARK   55  A    between atoms: _139  and  _141
REMARK   56  A    between atoms: _141  and  _142
REMARK   57  A    between atoms: _141  and  _144
REMARK   58  A    between atoms: _146  and  _148
REMARK   59  A    between atoms: _148  and  _149
REMARK   60  A    between atoms: _148  and  _151
REMARK   61  A    between atoms: _151  and  _152
REMARK   62  A    between atoms: _152  and  _153
REMARK   63  A    between atoms: _153  and  _154
REMARK   64  A    between atoms: _163  and  _165
REMARK   65  A    between atoms: _165  and  _166
REMARK   66  A    between atoms: _165  and  _168
REMARK   67  A    between atoms: _168  and  _169
REMARK   68  A    between atoms: _169  and  _170
REMARK   69  A    between atoms: _170  and  _171
REMARK   70  A    between atoms: _171  and  _172
REMARK   71  A    between atoms: _176  and  _178
REMARK   72  A    between atoms: _178  and  _179
REMARK   73  A    between atoms: _178  and  _181
REMARK   74  A    between atoms: _181  and  _182
REMARK   75  A    between atoms: _185  and  _187
REMARK   76  A    between atoms: _187  and  _188
REMARK   77  A    between atoms: _187  and  _190
REMARK   78  A    between atoms: _190  and  _191
REMARK   79  A    between atoms: _194  and  _196
REMARK   80  A    between atoms: _196  and  _197
REMARK   81  A    between atoms: _196  and  _199
REMARK   82  A    between atoms: _199  and  _200
REMARK   83  A    between atoms: _203  and  _205
REMARK   84  A    between atoms: _205  and  _206
REMARK   85  A    between atoms: _205  and  _208
REMARK   86  A    between atoms: _208  and  _209
REMARK   87  A    between atoms: _212  and  _214
REMARK   88  A    between atoms: _214  and  _215
REMARK   89  A    between atoms: _214  and  _217
REMARK   90  A    between atoms: _219  and  _221
REMARK   91  A    between atoms: _221  and  _222
REMARK   92  A    between atoms: _221  and  _224
REMARK   93  A    between atoms: _227  and  _229
REMARK   94  A    between atoms: _229  and  _230
REMARK   95  A    between atoms: _233  and  _235
REMARK   96  A    between atoms: _235  and  _236
REMARK   97  A    between atoms: _238  and  _240
REMARK   98  A    between atoms: _240  and  _241
REMARK   99  A    between atoms: _240  and  _243
REMARK  100  A    between atoms: _243  and  _244
REMARK  101  A    between atoms: _247  and  _249
REMARK  102  A    between atoms: _249  and  _250
REMARK  103  A    between atoms: _249  and  _252
REMARK  104  A    between atoms: _255  and  _257
REMARK  105  A    between atoms: _257  and  _258
REMARK  106  A    between atoms: _260  and  _262
REMARK  107  A    between atoms: _262  and  _263
REMARK  108  A    between atoms: _262  and  _265
REMARK  109  A    between atoms: _265  and  _266
REMARK  110  A    between atoms: _266  and  _267
REMARK  111  A    between atoms: _270  and  _272
REMARK  112  A    between atoms: _272  and  _273
REMARK  113  A    between atoms: _272  and  _275
REMARK  114  A    between atoms: _278  and  _280
REMARK  115  A    between atoms: _280  and  _281
REMARK  116  A    between atoms: _280  and  _283
REMARK  117  A    between atoms: _283  and  _284
REMARK  118  A    between atoms: _287  and  _289
REMARK  119  A    between atoms: _289  and  _290
REMARK  120  A    between atoms: _289  and  _292
REMARK  121  A    between atoms: _292  and  _293
REMARK  122  A    between atoms: _296  and  _298
REMARK  123  A    between atoms: _298  and  _299
REMARK  124  A    between atoms: _298  and  _301
REMARK  125  A    between atoms: _301  and  _302
REMARK  126  A    between atoms: _305  and  _307
REMARK  127  A    between atoms: _307  and  _308
REMARK  128  A    between atoms: _307  and  _310
REMARK  129  A    between atoms: _310  and  _311
REMARK  130  A    between atoms: _314  and  _316
REMARK  131  A    between atoms: _316  and  _317
REMARK  132  A    between atoms: _316  and  _319
REMARK  133  A    between atoms: _319  and  _320
REMARK  134  A    between atoms: _325  and  _326
REMARK  135  A    between atoms: _328  and  _330
REMARK  136  A    between atoms: _330  and  _331
REMARK  137  A    between atoms: _330  and  _333
REMARK  138  A    between atoms: _336  and  _338
REMARK  139  A    between atoms: _338  and  _339
REMARK  140  A    between atoms: _342  and  _344
REMARK  141  A    between atoms: _344  and  _345
REMARK  142  A    between atoms: _344  and  _347
REMARK  143  A    between atoms: _347  and  _348
REMARK  144  A    between atoms: _348  and  _349
REMARK  145  A    between atoms: _349  and  _350
REMARK  146  A    between atoms: _359  and  _361
REMARK  147  A    between atoms: _361  and  _362
REMARK  148  A    between atoms: _361  and  _364
REMARK  149  A    between atoms: _364  and  _365
REMARK  150  A    between atoms: _365  and  _366
REMARK  151  A    between atoms: _366  and  _367
REMARK  152  A    between atoms: _376  and  _378
REMARK  153  A    between atoms: _378  and  _379
REMARK  154  A    between atoms: _378  and  _381
REMARK  155  A    between atoms: _381  and  _382
REMARK  156  A    between atoms: _385  and  _387
REMARK  157  A    between atoms: _387  and  _388
REMARK  158  A    between atoms: _390  and  _392
REMARK  159  A    between atoms: _392  and  _393
REMARK  160  A    between atoms: _392  and  _395
REMARK  161  A    between atoms: _395  and  _396
REMARK  162  A    between atoms: _396  and  _397
REMARK  163  A    between atoms: _400  and  _402
REMARK  164  A    between atoms: _402  and  _403
REMARK  165  A    between atoms: _402  and  _405
REMARK  166  A    between atoms: _405  and  _406
REMARK  167  A    between atoms: _408  and  _410
REMARK  168  A    between atoms: _410  and  _411
REMARK  169  A    between atoms: _410  and  _413
REMARK  170  A    between atoms: _413  and  _414
REMARK  171  A    between atoms: _417  and  _419
REMARK  172  A    between atoms: _419  and  _420
REMARK  173  A    between atoms: _419  and  _422
REMARK  174  A    between atoms: _422  and  _423
REMARK  175  A    between atoms: _423  and  _424
REMARK  176  A    between atoms: _429  and  _431
REMARK  177  A    between atoms: _431  and  _432
REMARK  178  A    between atoms: _431  and  _434
REMARK  179  A    between atoms: _434  and  _435
REMARK  180  A    between atoms: _438  and  _440
REMARK  181  A    between atoms: _440  and  _441
REMARK  182  A    between atoms: _440  and  _443
REMARK  183  A    between atoms: _443  and  _444
REMARK  184  A    between atoms: _449  and  _451
REMARK  185  A    between atoms: _451  and  _452
REMARK  186  A    between atoms: _451  and  _454
REMARK  187  A    between atoms: _457  and  _459
REMARK  188  A    between atoms: _459  and  _460
REMARK  189  A    between atoms: _459  and  _462
REMARK  190  A    between atoms: _462  and  _463
REMARK  191  A    between atoms: _466  and  _468
REMARK  192  A    between atoms: _468  and  _469
REMARK  193  A    between atoms: _468  and  _471
REMARK  194  A    between atoms: _474  and  _476
REMARK  195  A    between atoms: _476  and  _477
REMARK  196  A    between atoms: _476  and  _479
REMARK  197  A    between atoms: _479  and  _480
REMARK  198  A    between atoms: _486  and  _488
REMARK  199  A    between atoms: _488  and  _489
REMARK  200  A    between atoms: _492  and  _494
REMARK  201  A    between atoms: _494  and  _495
REMARK  202  A    between atoms: _494  and  _497
REMARK  203  A    between atoms: _497  and  _498
REMARK  204  A    between atoms: _501  and  _503
REMARK  205  A    between atoms: _503  and  _504
REMARK  206  A    between atoms: _503  and  _506
REMARK  207  A    between atoms: _506  and  _507
REMARK  208  A    between atoms: _510  and  _512
REMARK  209  A    between atoms: _512  and  _513
REMARK  210  A    between atoms: _512  and  _515
REMARK  211  A    between atoms: _515  and  _516
REMARK  212  A    between atoms: _516  and  _517
REMARK  213  A    between atoms: _520  and  _522
REMARK  214  A    between atoms: _522  and  _523
REMARK  215  A    between atoms: _526  and  _528
REMARK  216  A    between atoms: _528  and  _529
REMARK  217  A    between atoms: _532  and  _534
REMARK  218  A    between atoms: _534  and  _535
REMARK  219  A    between atoms: _534  and  _537
REMARK  220  A    between atoms: _537  and  _538
REMARK  221  A    between atoms: _543  and  _544
REMARK                            x       y       z     vdW  Elec       q    Type
REMARK                         _______ _______ _______ _____ _____    ______ ____
ROOT
ATOM      1  CA  VAL A   1      63.996  24.403  47.391  0.00  0.00    +0.133 C 
ENDROOT
BRANCH   1   2
ATOM      2  CB  VAL A   1      63.435  23.126  48.044  0.00  0.00    +0.023 C 
ATOM      3  CG2 VAL A   1      62.895  23.408  49.444  0.00  0.00    +0.002 C 
ATOM      4  CG1 VAL A   1      62.347  22.518  47.164  0.00  0.00    +0.002 C 
ENDBRANCH   1   2
BRANCH   1   5
ATOM      5  N   VAL A   1      64.644  24.116  46.122  0.00  0.00    -0.239 NA
ATOM      6  H   VAL A   1      64.804  23.123  45.856  0.00  0.00    +0.142 HD
ENDBRANCH   1   5
BRANCH   1   7
ATOM      7  C   VAL A   1      64.969  25.114  48.333  0.00  0.00    +0.224 C 
ATOM      8  O   VAL A   1      64.607  26.120  48.960  0.00  0.00    -0.287 OA
ENDBRANCH   1   7
TORSDOF 3
REMARK  Name = ../refined-set-2016/3acx/3acx_pocket.pdb
REMARK  221 active torsions:
REMARK  status: ('A' for Active; 'I' for Inactive)
REMARK    1  A    between atoms: _1  and  _3
REMARK    2  A    between atoms: _3  and  _4
REMARK    3  A    between atoms: _3  and  _6
REMARK    4  A    between atoms: _6  and  _7
REMARK    5  A    between atoms: _10  and  _12
REMARK    6  A    between atoms: _12  and  _13
REMARK    7  A    between atoms: _12  and  _15
REMARK    8  A    between atoms: _15  and  _16
REMARK    9  A    between atoms: _16  and  _17
REMARK   10  A    between atoms: _19  and  _21
REMARK   11  A    between atoms: _21  and  _22
REMARK   12  A    between atoms: _21  and  _24
REMARK   13  A    between atoms: _24  and  _25
REMARK   14  A    between atoms: _30  and  _32
REMARK   15  A    between atoms: _32  and  _33
REMARK   16  A    between atoms: _32  and  _35
REMARK   17  A    between atoms: _35  and  _36
REMARK   18  A    between atoms: _38  and  _40
REMARK   19  A    between atoms: _40  and  _41
REMARK   20  A    between atoms: _40  and  _43
REMARK   21  A    between atoms: _43  and  _44
REMARK   22  A    between atoms: _46  and  _48
REMARK   23  A    between atoms: _48  and  _49
REMARK   24  A    between atoms: _48  and  _51
REMARK   25  A    between atoms: _51  and  _52
REMARK   26  A    between atoms: _58  and  _60
REMARK   27  A    between atoms: _60  and  _61
REMARK   28  A    between atoms: _60  and  _63
REMARK   29  A    between atoms: _63  and  _64
REMARK   30  A    between atoms: _66  and  _68
REMARK   31  A    between atoms: _68  and  _69
REMARK   32  A    between atoms: _68  and  _71
REMARK   33  A    between atoms: _71  and  _72
REMARK   34  A    between atoms: _78  and  _80
REMARK   35  A    between atoms: _80  and  _81
REMARK   36  A    between atoms: _80  and  _83
REMARK   37  A    between atoms: _86  and  _88
REMARK   38  A    between atoms: _88  and  _89
REMARK   39  A    between atoms: _88  and  _91
REMARK   40  A    between atoms: _91  and  _92
REMARK   41  A    between atoms: _102  and  _104
REMARK   42  A    between atoms: _104  and  _105
REMARK   43  A    between atoms: _104  and  _107
REMARK   44  A    between atoms: _107  and  _108
REMARK   45  A    between atoms: _111  and  _113
REMARK   46  A    between atoms: _113  and  _114
REMARK   47  A    between atoms: _113  and  _116
REMARK   48  A    between atoms: _116  and  _117
REMARK   49  A    between atoms: _122  and  _123
REMARK   50  A    between atoms: _125  and  _127
REMARK   51  A    between atoms: _127  and  _128
REMARK   52  A    between atoms: _131  and  _133
REMARK   53  A    between atoms: _133  and  _134
REMARK   54  A    between atoms: _133  and  _136
REMARK   55  A    between atoms: _139  and  _141
REMARK   56  A    between atoms: _141  and  _142
REMARK   57  A    between atoms: _141  and  _144
REMARK   58  A    between atoms: _146  and  _148
REMARK   59  A    between atoms: _148  and  _149
REMARK   60  A    between atoms: _148  and  _151
REMARK   61  A    between atoms: _151  and  _152
REMARK   62  A    between atoms: _152  and  _153
REMARK   63  A    between atoms: _153  and  _154
REMARK   64  A    between atoms: _163  and  _165
REMARK   65  A    between atoms: _165  and  _166
REMARK   66  A    between atoms: _165  and  _168
REMARK   67  A    between atoms: _168  and  _169
REMARK   68  A    between atoms: _169  and  _170
REMARK   69  A    between atoms: _170  and  _171
REMARK   70  A    between atoms: _171  and  _172
REMARK   71  A    between atoms: _176  and  _178
REMARK   72  A    between atoms: _178  and  _179
REMARK   73  A    between atoms: _178  and  _181
REMARK   74  A    between atoms: _181  and  _182
REMARK   75  A    between atoms: _185  and  _187
REMARK   76  A    between atoms: _187  and  _188
REMARK   77  A    between atoms: _187  and  _190
REMARK   78  A    between atoms: _190  and  _191
REMARK   79  A    between atoms: _194  and  _196
REMARK   80  A    between atoms: _196  and  _197
REMARK   81  A    between atoms: _196  and  _199
REMARK   82  A    between atoms: _199  and  _200
REMARK   83  A    between atoms: _203  and  _205
REMARK   84  A    between atoms: _205  and  _206
REMARK   85  A    between atoms: _205  and  _208
REMARK   86  A    between atoms: _208  and  _209
REMARK   87  A    between atoms: _212  and  _214
REMARK   88  A    between atoms: _214  and  _215
REMARK   89  A    between atoms: _214  and  _217
REMARK   90  A    between atoms: _219  and  _221
REMARK   91  A    between atoms: _221  and  _222
REMARK   92  A    between atoms: _221  and  _224
REMARK   93  A    between atoms: _227  and  _229
REMARK   94  A    between atoms: _229  and  _230
REMARK   95  A    between atoms: _233  and  _235
REMARK   96  A    between atoms: _235  and  _236
REMARK   97  A    between atoms: _238  and  _240
REMARK   98  A    between atoms: _240  and  _241
REMARK   99  A    between atoms: _240  and  _243
REMARK  100  A    between atoms: _243  and  _244
REMARK  101  A    between atoms: _247  and  _249
REMARK  102  A    between atoms: _249  and  _250
REMARK  103  A    between atoms: _249  and  _252
REMARK  104  A    between atoms: _255  and  _257
REMARK  105  A    between atoms: _257  and  _258
REMARK  106  A    between atoms: _260  and  _262
REMARK  107  A    between atoms: _262  and  _263
REMARK  108  A    between atoms: _262  and  _265
REMARK  109  A    between atoms: _265  and  _266
REMARK  110  A    between atoms: _266  and  _267
REMARK  111  A    between atoms: _270  and  _272
REMARK  112  A    between atoms: _272  and  _273
REMARK  113  A    between atoms: _272  and  _275
REMARK  114  A    between atoms: _278  and  _280
REMARK  115  A    between atoms: _280  and  _281
REMARK  116  A    between atoms: _280  and  _283
REMARK  117  A    between atoms: _283  and  _284
REMARK  118  A    between atoms: _287  and  _289
REMARK  119  A    between atoms: _289  and  _290
REMARK  120  A    between atoms: _289  and  _292
REMARK  121  A    between atoms: _292  and  _293
REMARK  122  A    between atoms: _296  and  _298
REMARK  123  A    between atoms: _298  and  _299
REMARK  124  A    between atoms: _298  and  _301
REMARK  125  A    between atoms: _301  and  _302
REMARK  126  A    between atoms: _305  and  _307
REMARK  127  A    between atoms: _307  and  _308
REMARK  128  A    between atoms: _307  and  _310
REMARK  129  A    between atoms: _310  and  _311
REMARK  130  A    between atoms: _314  and  _316
REMARK  131  A    between atoms: _316  and  _317
REMARK  132  A    between atoms: _316  and  _319
REMARK  133  A    between atoms: _319  and  _320
REMARK  134  A    between atoms: _325  and  _326
REMARK  135  A    between atoms: _328  and  _330
REMARK  136  A    between atoms: _330  and  _331
REMARK  137  A    between atoms: _330  and  _333
REMARK  138  A    between atoms: _336  and  _338
REMARK  139  A    between atoms: _338  and  _339
REMARK  140  A    between atoms: _342  and  _344
REMARK  141  A    between atoms: _344  and  _345
REMARK  142  A    between atoms: _344  and  _347
REMARK  143  A    between atoms: _347  and  _348
REMARK  144  A    between atoms: _348  and  _349
REMARK  145  A    between atoms: _349  and  _350
REMARK  146  A    between atoms: _359  and  _361
REMARK  147  A    between atoms: _361  and  _362
REMARK  148  A    between atoms: _361  and  _364
REMARK  149  A    between atoms: _364  and  _365
REMARK  150  A    between atoms: _365  and  _366
REMARK  151  A    between atoms: _366  and  _367
REMARK  152  A    between atoms: _376  and  _378
REMARK  153  A    between atoms: _378  and  _379
REMARK  154  A    between atoms: _378  and  _381
REMARK  155  A    between atoms: _381  and  _382
REMARK  156  A    between atoms: _385  and  _387
REMARK  157  A    between atoms: _387  and  _388
REMARK  158  A    between atoms: _390  and  _392
REMARK  159  A    between atoms: _392  and  _393
REMARK  160  A    between atoms: _392  and  _395
REMARK  161  A    between atoms: _395  and  _396
REMARK  162  A    between atoms: _396  and  _397
REMARK  163  A    between atoms: _400  and  _402
REMARK  164  A    between atoms: _402  and  _403
REMARK  165  A    between atoms: _402  and  _405
REMARK  166  A    between atoms: _405  and  _406
REMARK  167  A    between atoms: _408  and  _410
REMARK  168  A    between atoms: _410  and  _411
REMARK  169  A    between atoms: _410  and  _413
REMARK  170  A    between atoms: _413  and  _414
REMARK  171  A    between atoms: _417  and  _419
REMARK  172  A    between atoms: _419  and  _420
REMARK  173  A    between atoms: _419  and  _422
REMARK  174  A    between atoms: _422  and  _423
REMARK  175  A    between atoms: _423  and  _424
REMARK  176  A    between atoms: _429  and  _431
REMARK  177  A    between atoms: _431  and  _432
REMARK  178  A    between atoms: _431  and  _434
REMARK  179  A    between atoms: _434  and  _435
REMARK  180  A    between atoms: _438  and  _440
REMARK  181  A    between atoms: _440  and  _441
REMARK  182  A    between atoms: _440  and  _443
REMARK  183  A    between atoms: _443  and  _444
REMARK  184  A    between atoms: _449  and  _451
REMARK  185  A    between atoms: _451  and  _452
REMARK  186  A    between atoms: _451  and  _454
REMARK  187  A    between atoms: _457  and  _459
REMARK  188  A    between atoms: _459  and  _460
REMARK  189  A    between atoms: _459  and  _462
REMARK  190  A    between atoms: _462  and  _463
REMARK  191  A    between atoms: _466  and  _468
REMARK  192  A    between atoms: _468  and  _469
REMARK  193  A    between atoms: _468  and  _471
REMARK  194  A    between atoms: _474  and  _476
REMARK  195  A    between atoms: _476  and  _477
REMARK  196  A    between atoms: _476  and  _479
REMARK  197  A    between atoms: _479  and  _480
REMARK  198  A    between atoms: _486  and  _488
REMARK  199  A    between atoms: _488  and  _489
REMARK  200  A    between atoms: _492  and  _494
REMARK  201  A    between atoms: _494  and  _495
REMARK  202  A    between atoms: _494  and  _497
REMARK  203  A    between atoms: _497  and  _498
REMARK  204  A    between atoms: _501  and  _503
REMARK  205  A    between atoms: _503  and  _504
REMARK  206  A    between atoms: _503  and  _506
REMARK  207  A    between atoms: _506  and  _507
REMARK  208  A    between atoms: _510  and  _512
REMARK  209  A    between atoms: _512  and  _513
REMARK  210  A    between atoms: _512  and  _515
REMARK  211  A    between atoms: _515  and  _516
REMARK  212  A    between atoms: _516  and  _517
REMARK  213  A    between atoms: _520  and  _522
REMARK  214  A    between atoms: _522  and  _523
REMARK  215  A    between atoms: _526  and  _528
REMARK  216  A    between atoms: _528  and  _529
REMARK  217  A    between atoms: _532  and  _534
REMARK  218  A    between atoms: _534  and  _535
REMARK  219  A    between atoms: _534  and  _537
REMARK  220  A    between atoms: _537  and  _538
REMARK  221  A    between atoms: _543  and  _544
REMARK                            x       y       z     vdW  Elec       q    Type
REMARK                         _______ _______ _______ _____ _____    ______ ____
ROOT
ATOM      1  CA  ILE A   1      64.058  28.565  51.506  0.00  0.00    +0.133 C 
ENDROOT
BRANCH   1   2
ATOM      2  N   ILE A   1      64.486  28.929  50.156  0.00  0.00    -0.239 NA
ATOM      3  H   ILE A   1      65.497  28.899  49.916  0.00  0.00    +0.142 HD
ENDBRANCH   1   2
BRANCH   1   4
ATOM      4  CB  ILE A   1      65.222  27.919  52.295  0.00  0.00    +0.023 C 
ATOM      5  CG2 ILE A   1      66.225  28.956  52.792  0.00  0.00    +0.002 C 
BRANCH   4   6
ATOM      6  CG1 ILE A   1      64.681  27.103  53.470  0.00  0.00    +0.002 C 
ATOM      7  CD1 ILE A   1      64.660  25.638  53.240  0.00  0.00    +0.000 C 
ENDBRANCH   4   6
ENDBRANCH   1   4
BRANCH   1   8
ATOM      8  C   ILE A   1      63.481  29.758  52.273  0.00  0.00    +0.224 C 
ATOM      9  O   ILE A   1      62.753  29.569  53.250  0.00  0.00    -0.287 OA
ENDBRANCH   1   8
TORSDOF 4
REMARK  Name = ../refined-set-2016/3acx/3acx_pocket.pdb
REMARK  221 active torsions:
REMARK  status: ('A' for Active; 'I' for Inactive)
REMARK    1  A    between atoms: _1  and  _3
REMARK    2  A    between atoms: _3  and  _4
REMARK    3  A    between atoms: _3  and  _6
REMARK    4  A    between atoms: _6  and  _7
REMARK    5  A    between atoms: _10  and  _12
REMARK    6  A    between atoms: _12  and  _13
REMARK    7  A    between atoms: _12  and  _15
REMARK    8  A    between atoms: _15  and  _16
REMARK    9  A    between atoms: _16  and  _17
REMARK   10  A    between atoms: _19  and  _21
REMARK   11  A    between atoms: _21  and  _22
REMARK   12  A    between atoms: _21  and  _24
REMARK   13  A    between atoms: _24  and  _25
REMARK   14  A    between atoms: _30  and  _32
REMARK   15  A    between atoms: _32  and  _33
REMARK   16  A    between atoms: _32  and  _35
REMARK   17  A    between atoms: _35  and  _36
REMARK   18  A    between atoms: _38  and  _40
REMARK   19  A    between atoms: _40  and  _41
REMARK   20  A    between atoms: _40  and  _43
REMARK   21  A    between atoms: _43  and  _44
REMARK   22  A    between atoms: _46  and  _48
REMARK   23  A    between atoms: _48  and  _49
REMARK   24  A    between atoms: _48  and  _51
REMARK   25  A    between atoms: _51  and  _52
REMARK   26  A    between atoms: _58  and  _60
REMARK   27  A    between atoms: _60  and  _61
REMARK   28  A    between atoms: _60  and  _63
REMARK   29  A    between atoms: _63  and  _64
REMARK   30  A    between atoms: _66  and  _68
REMARK   31  A    between atoms: _68  and  _69
REMARK   32  A    between atoms: _68  and  _71
REMARK   33  A    between atoms: _71  and  _72
REMARK   34  A    between atoms: _78  and  _80
REMARK   35  A    between atoms: _80  and  _81
REMARK   36  A    between atoms: _80  and  _83
REMARK   37  A    between atoms: _86  and  _88
REMARK   38  A    between atoms: _88  and  _89
REMARK   39  A    between atoms: _88  and  _91
REMARK   40  A    between atoms: _91  and  _92
REMARK   41  A    between atoms: _102  and  _104
REMARK   42  A    between atoms: _104  and  _105
REMARK   43  A    between atoms: _104  and  _107
REMARK   44  A    between atoms: _107  and  _108
REMARK   45  A    between atoms: _111  and  _113
REMARK   46  A    between atoms: _113  and  _114
REMARK   47  A    between atoms: _113  and  _116
REMARK   48  A    between atoms: _116  and  _117
REMARK   49  A    between atoms: _122  and  _123
REMARK   50  A    between atoms: _125  and  _127
REMARK   51  A    between atoms: _127  and  _128
REMARK   52  A    between atoms: _131  and  _133
REMARK   53  A    between atoms: _133  and  _134
REMARK   54  A    between atoms: _133  and  _136
REMARK   55  A    between atoms: _139  and  _141
REMARK   56  A    between atoms: _141  and  _142
REMARK   57  A    between atoms: _141  and  _144
REMARK   58  A    between atoms: _146  and  _148
REMARK   59  A    between atoms: _148  and  _149
REMARK   60  A    between atoms: _148  and  _151
REMARK   61  A    between atoms: _151  and  _152
REMARK   62  A    between atoms: _152  and  _153
REMARK   63  A    between atoms: _153  and  _154
REMARK   64  A    between atoms: _163  and  _165
REMARK   65  A    between atoms: _165  and  _166
REMARK   66  A    between atoms: _165  and  _168
REMARK   67  A    between atoms: _168  and  _169
REMARK   68  A    between atoms: _169  and  _170
REMARK   69  A    between atoms: _170  and  _171
REMARK   70  A    between atoms: _171  and  _172
REMARK   71  A    between atoms: _176  and  _178
REMARK   72  A    between atoms: _178  and  _179
REMARK   73  A    between atoms: _178  and  _181
REMARK   74  A    between atoms: _181  and  _182
REMARK   75  A    between atoms: _185  and  _187
REMARK   76  A    between atoms: _187  and  _188
REMARK   77  A    between atoms: _187  and  _190
REMARK   78  A    between atoms: _190  and  _191
REMARK   79  A    between atoms: _194  and  _196
REMARK   80  A    between atoms: _196  and  _197
REMARK   81  A    between atoms: _196  and  _199
REMARK   82  A    between atoms: _199  and  _200
REMARK   83  A    between atoms: _203  and  _205
REMARK   84  A    between atoms: _205  and  _206
REMARK   85  A    between atoms: _205  and  _208
REMARK   86  A    between atoms: _208  and  _209
REMARK   87  A    between atoms: _212  and  _214
REMARK   88  A    between atoms: _214  and  _215
REMARK   89  A    between atoms: _214  and  _217
REMARK   90  A    between atoms: _219  and  _221
REMARK   91  A    between atoms: _221  and  _222
REMARK   92  A    between atoms: _221  and  _224
REMARK   93  A    between atoms: _227  and  _229
REMARK   94  A    between atoms: _229  and  _230
REMARK   95  A    between atoms: _233  and  _235
REMARK   96  A    between atoms: _235  and  _236
REMARK   97  A    between atoms: _238  and  _240
REMARK   98  A    between atoms: _240  and  _241
REMARK   99  A    between atoms: _240  and  _243
REMARK  100  A    between atoms: _243  and  _244
REMARK  101  A    between atoms: _247  and  _249
REMARK  102  A    between atoms: _249  and  _250
REMARK  103  A    between atoms: _249  and  _252
REMARK  104  A    between atoms: _255  and  _257
REMARK  105  A    between atoms: _257  and  _258
REMARK  106  A    between atoms: _260  and  _262
REMARK  107  A    between atoms: _262  and  _263
REMARK  108  A    between atoms: _262  and  _265
REMARK  109  A    between atoms: _265  and  _266
REMARK  110  A    between atoms: _266  and  _267
REMARK  111  A    between atoms: _270  and  _272
REMARK  112  A    between atoms: _272  and  _273
REMARK  113  A    between atoms: _272  and  _275
REMARK  114  A    between atoms: _278  and  _280
REMARK  115  A    between atoms: _280  and  _281
REMARK  116  A    between atoms: _280  and  _283
REMARK  117  A    between atoms: _283  and  _284
REMARK  118  A    between atoms: _287  and  _289
REMARK  119  A    between atoms: _289  and  _290
REMARK  120  A    between atoms: _289  and  _292
REMARK  121  A    between atoms: _292  and  _293
REMARK  122  A    between atoms: _296  and  _298
REMARK  123  A    between atoms: _298  and  _299
REMARK  124  A    between atoms: _298  and  _301
REMARK  125  A    between atoms: _301  and  _302
REMARK  126  A    between atoms: _305  and  _307
REMARK  127  A    between atoms: _307  and  _308
REMARK  128  A    between atoms: _307  and  _310
REMARK  129  A    between atoms: _310  and  _311
REMARK  130  A    between atoms: _314  and  _316
REMARK  131  A    between atoms: _316  and  _317
REMARK  132  A    between atoms: _316  and  _319
REMARK  133  A    between atoms: _319  and  _320
REMARK  134  A    between atoms: _325  and  _326
REMARK  135  A    between atoms: _328  and  _330
REMARK  136  A    between atoms: _330  and  _331
REMARK  137  A    between atoms: _330  and  _333
REMARK  138  A    between atoms: _336  and  _338
REMARK  139  A    between atoms: _338  and  _339
REMARK  140  A    between atoms: _342  and  _344
REMARK  141  A    between atoms: _344  and  _345
REMARK  142  A    between atoms: _344  and  _347
REMARK  143  A    between atoms: _347  and  _348
REMARK  144  A    between atoms: _348  and  _349
REMARK  145  A    between atoms: _349  and  _350
REMARK  146  A    between atoms: _359  and  _361
REMARK  147  A    between atoms: _361  and  _362
REMARK  148  A    between atoms: _361  and  _364
REMARK  149  A    between atoms: _364  and  _365
REMARK  150  A    between atoms: _365  and  _366
REMARK  151  A    between atoms: _366  and  _367
REMARK  152  A    between atoms: _376  and  _378
REMARK  153  A    between atoms: _378  and  _379
REMARK  154  A    between atoms: _378  and  _381
REMARK  155  A    between atoms: _381  and  _382
REMARK  156  A    between atoms: _385  and  _387
REMARK  157  A    between atoms: _387  and  _388
REMARK  158  A    between atoms: _390  and  _392
REMARK  159  A    between atoms: _392  and  _393
REMARK  160  A    between atoms: _392  and  _395
REMARK  161  A    between atoms: _395  and  _396
REMARK  162  A    between atoms: _396  and  _397
REMARK  163  A    between atoms: _400  and  _402
REMARK  164  A    between atoms: _402  and  _403
REMARK  165  A    between atoms: _402  and  _405
REMARK  166  A    between atoms: _405  and  _406
REMARK  167  A    between atoms: _408  and  _410
REMARK  168  A    between atoms: _410  and  _411
REMARK  169  A    between atoms: _410  and  _413
REMARK  170  A    between atoms: _413  and  _414
REMARK  171  A    between atoms: _417  and  _419
REMARK  172  A    between atoms: _419  and  _420
REMARK  173  A    between atoms: _419  and  _422
REMARK  174  A    between atoms: _422  and  _423
REMARK  175  A    between atoms: _423  and  _424
REMARK  176  A    between atoms: _429  and  _431
REMARK  177  A    between atoms: _431  and  _432
REMARK  178  A    between atoms: _431  and  _434
REMARK  179  A    between atoms: _434  and  _435
REMARK  180  A    between atoms: _438  and  _440
REMARK  181  A    between atoms: _440  and  _441
REMARK  182  A    between atoms: _440  and  _443
REMARK  183  A    between atoms: _443  and  _444
REMARK  184  A    between atoms: _449  and  _451
REMARK  185  A    between atoms: _451  and  _452
REMARK  186  A    between atoms: _451  and  _454
REMARK  187  A    between atoms: _457  and  _459
REMARK  188  A    between atoms: _459  and  _460
REMARK  189  A    between atoms: _459  and  _462
REMARK  190  A    between atoms: _462  and  _463
REMARK  191  A    between atoms: _466  and  _468
REMARK  192  A    between atoms: _468  and  _469
REMARK  193  A    between atoms: _468  and  _471
REMARK  194  A    between atoms: _474  and  _476
REMARK  195  A    between atoms: _476  and  _477
REMARK  196  A    between atoms: _476  and  _479
REMARK  197  A    between atoms: _479  and  _480
REMARK  198  A    between atoms: _486  and  _488
REMARK  199  A    between atoms: _488  and  _489
REMARK  200  A    between atoms: _492  and  _494
REMARK  201  A    between atoms: _494  and  _495
REMARK  202  A    between atoms: _494  and  _497
REMARK  203  A    between atoms: _497  and  _498
REMARK  204  A    between atoms: _501  and  _503
REMARK  205  A    between atoms: _503  and  _504
REMARK  206  A    between atoms: _503  and  _506
REMARK  207  A    between atoms: _506  and  _507
REMARK  208  A    between atoms: _510  and  _512
REMARK  209  A    between atoms: _512  and  _513
REMARK  210  A    between atoms: _512  and  _515
REMARK  211  A    between atoms: _515  and  _516
REMARK  212  A    between atoms: _516  and  _517
REMARK  213  A    between atoms: _520  and  _522
REMARK  214  A    between atoms: _522  and  _523
REMARK  215  A    between atoms: _526  and  _528
REMARK  216  A    between atoms: _528  and  _529
REMARK  217  A    between atoms: _532  and  _534
REMARK  218  A    between atoms: _534  and  _535
REMARK  219  A    between atoms: _534  and  _537
REMARK  220  A    between atoms: _537  and  _538
REMARK  221  A    between atoms: _543  and  _544
REMARK                            x       y       z     vdW  Elec       q    Type
REMARK                         _______ _______ _______ _____ _____    ______ ____
ROOT
ATOM      1  C   VAL A   1      59.085  31.094  53.009  0.00  0.00    +0.238 C 
ATOM      2  N   PHE A   2      59.898  30.372  53.780  0.00  0.00    -0.298 N 
ATOM      3  H   PHE A   2      60.880  30.209  53.479  0.00  0.00    +0.150 HD
ATOM      4  O   VAL A   1      57.936  31.377  53.353  0.00  0.00    -0.274 OA
ENDROOT
BRANCH   1   5
ATOM      5  CA  VAL A   1      59.627  31.571  51.667  0.00  0.00    +0.145 C 
BRANCH   5   6
ATOM      6  CB  VAL A   1      58.956  30.714  50.558  0.00  0.00    +0.025 C 
ATOM      7  CG2 VAL A   1      59.263  29.208  50.681  0.00  0.00    +0.002 C 
ATOM      8  CG1 VAL A   1      59.281  31.253  49.167  0.00  0.00    +0.002 C 
ENDBRANCH   5   6
BRANCH   5   9
ATOM      9  N   VAL A   1      61.094  31.545  51.652  0.00  0.00    -0.238 NA
ATOM     10  H   VAL A   1      61.592  30.860  51.049  0.00  0.00    +0.142 HD
ENDBRANCH   5   9
ENDBRANCH   1   5
BRANCH   2  11
ATOM     11  CA  PHE A   2      59.427  29.806  55.044  0.00  0.00    +0.141 C 
BRANCH  11  12
ATOM     12  C   PHE A   2      59.777  30.724  56.207  0.00  0.00    +0.227 C 
ATOM     13  O   PHE A   2      60.642  31.600  56.089  0.00  0.00    -0.286 OA
ENDBRANCH  11  12
BRANCH  11  14
ATOM     14  CB  PHE A   2      59.965  28.382  55.223  0.00  0.00    +0.054 C 
BRANCH  14  15
ATOM     15  CG  PHE A   2      59.546  27.453  54.115  0.00  0.00    -0.020 A 
ATOM     16  CD2 PHE A   2      58.207  27.113  53.957  0.00  0.00    -0.004 A 
ATOM     17  CE2 PHE A   2      57.811  26.261  52.929  0.00  0.00    -0.000 A 
ATOM     18  CZ  PHE A   2      58.755  25.751  52.043  0.00  0.00    -0.000 A 
ATOM     19  CE1 PHE A   2      60.099  26.085  52.192  0.00  0.00    -0.000 A 
ATOM     20  CD1 PHE A   2      60.487  26.946  53.216  0.00  0.00    -0.004 A 
ENDBRANCH  14  15
ENDBRANCH  11  14
ENDBRANCH   2  11
TORSDOF 7
REMARK  Name = ../refined-set-2016/3acx/3acx_pocket.pdb
REMARK  221 active torsions:
REMARK  status: ('A' for Active; 'I' for Inactive)
REMARK    1  A    between atoms: _1  and  _3
REMARK    2  A    between atoms: _3  and  _4
REMARK    3  A    between atoms: _3  and  _6
REMARK    4  A    between atoms: _6  and  _7
REMARK    5  A    between atoms: _10  and  _12
REMARK    6  A    between atoms: _12  and  _13
REMARK    7  A    between atoms: _12  and  _15
REMARK    8  A    between atoms: _15  and  _16
REMARK    9  A    between atoms: _16  and  _17
REMARK   10  A    between atoms: _19  and  _21
REMARK   11  A    between atoms: _21  and  _22
REMARK   12  A    between atoms: _21  and  _24
REMARK   13  A    between atoms: _24  and  _25
REMARK   14  A    between atoms: _30  and  _32
REMARK   15  A    between atoms: _32  and  _33
REMARK   16  A    between atoms: _32  and  _35
REMARK   17  A    between atoms: _35  and  _36
REMARK   18  A    between atoms: _38  and  _40
REMARK   19  A    between atoms: _40  and  _41
REMARK   20  A    between atoms: _40  and  _43
REMARK   21  A    between atoms: _43  and  _44
REMARK   22  A    between atoms: _46  and  _48
REMARK   23  A    between atoms: _48  and  _49
REMARK   24  A    between atoms: _48  and  _51
REMARK   25  A    between atoms: _51  and  _52
REMARK   26  A    between atoms: _58  and  _60
REMARK   27  A    between atoms: _60  and  _61
REMARK   28  A    between atoms: _60  and  _63
REMARK   29  A    between atoms: _63  and  _64
REMARK   30  A    between atoms: _66  and  _68
REMARK   31  A    between atoms: _68  and  _69
REMARK   32  A    between atoms: _68  and  _71
REMARK   33  A    between atoms: _71  and  _72
REMARK   34  A    between atoms: _78  and  _80
REMARK   35  A    between atoms: _80  and  _81
REMARK   36  A    between atoms: _80  and  _83
REMARK   37  A    between atoms: _86  and  _88
REMARK   38  A    between atoms: _88  and  _89
REMARK   39  A    between atoms: _88  and  _91
REMARK   40  A    between atoms: _91  and  _92
REMARK   41  A    between atoms: _102  and  _104
REMARK   42  A    between atoms: _104  and  _105
REMARK   43  A    between atoms: _104  and  _107
REMARK   44  A    between atoms: _107  and  _108
REMARK   45  A    between atoms: _111  and  _113
REMARK   46  A    between atoms: _113  and  _114
REMARK   47  A    between atoms: _113  and  _116
REMARK   48  A    between atoms: _116  and  _117
REMARK   49  A    between atoms: _122  and  _123
REMARK   50  A    between atoms: _125  and  _127
REMARK   51  A    between atoms: _127  and  _128
REMARK   52  A    between atoms: _131  and  _133
REMARK   53  A    between atoms: _133  and  _134
REMARK   54  A    between atoms: _133  and  _136
REMARK   55  A    between atoms: _139  and  _141
REMARK   56  A    between atoms: _141  and  _142
REMARK   57  A    between atoms: _141  and  _144
REMARK   58  A    between atoms: _146  and  _148
REMARK   59  A    between atoms: _148  and  _149
REMARK   60  A    between atoms: _148  and  _151
REMARK   61  A    between atoms: _151  and  _152
REMARK   62  A    between atoms: _152  and  _153
REMARK   63  A    between atoms: _153  and  _154
REMARK   64  A    between atoms: _163  and  _165
REMARK   65  A    between atoms: _165  and  _166
REMARK   66  A    between atoms: _165  and  _168
REMARK   67  A    between atoms: _168  and  _169
REMARK   68  A    between atoms: _169  and  _170
REMARK   69  A    between atoms: _170  and  _171
REMARK   70  A    between atoms: _171  and  _172
REMARK   71  A    between atoms: _176  and  _178
REMARK   72  A    between atoms: _178  and  _179
REMARK   73  A    between atoms: _178  and  _181
REMARK   74  A    between atoms: _181  and  _182
REMARK   75  A    between atoms: _185  and  _187
REMARK   76  A    between atoms: _187  and  _188
REMARK   77  A    between atoms: _187  and  _190
REMARK   78  A    between atoms: _190  and  _191
REMARK   79  A    between atoms: _194  and  _196
REMARK   80  A    between atoms: _196  and  _197
REMARK   81  A    between atoms: _196  and  _199
REMARK   82  A    between atoms: _199  and  _200
REMARK   83  A    between atoms: _203  and  _205
REMARK   84  A    between atoms: _205  and  _206
REMARK   85  A    between atoms: _205  and  _208
REMARK   86  A    between atoms: _208  and  _209
REMARK   87  A    between atoms: _212  and  _214
REMARK   88  A    between atoms: _214  and  _215
REMARK   89  A    between atoms: _214  and  _217
REMARK   90  A    between atoms: _219  and  _221
REMARK   91  A    between atoms: _221  and  _222
REMARK   92  A    between atoms: _221  and  _224
REMARK   93  A    between atoms: _227  and  _229
REMARK   94  A    between atoms: _229  and  _230
REMARK   95  A    between atoms: _233  and  _235
REMARK   96  A    between atoms: _235  and  _236
REMARK   97  A    between atoms: _238  and  _240
REMARK   98  A    between atoms: _240  and  _241
REMARK   99  A    between atoms: _240  and  _243
REMARK  100  A    between atoms: _243  and  _244
REMARK  101  A    between atoms: _247  and  _249
REMARK  102  A    between atoms: _249  and  _250
REMARK  103  A    between atoms: _249  and  _252
REMARK  104  A    between atoms: _255  and  _257
REMARK  105  A    between atoms: _257  and  _258
REMARK  106  A    between atoms: _260  and  _262
REMARK  107  A    between atoms: _262  and  _263
REMARK  108  A    between atoms: _262  and  _265
REMARK  109  A    between atoms: _265  and  _266
REMARK  110  A    between atoms: _266  and  _267
REMARK  111  A    between atoms: _270  and  _272
REMARK  112  A    between atoms: _272  and  _273
REMARK  113  A    between atoms: _272  and  _275
REMARK  114  A    between atoms: _278  and  _280
REMARK  115  A    between atoms: _280  and  _281
REMARK  116  A    between atoms: _280  and  _283
REMARK  117  A    between atoms: _283  and  _284
REMARK  118  A    between atoms: _287  and  _289
REMARK  119  A    between atoms: _289  and  _290
REMARK  120  A    between atoms: _289  and  _292
REMARK  121  A    between atoms: _292  and  _293
REMARK  122  A    between atoms: _296  and  _298
REMARK  123  A    between atoms: _298  and  _299
REMARK  124  A    between atoms: _298  and  _301
REMARK  125  A    between atoms: _301  and  _302
REMARK  126  A    between atoms: _305  and  _307
REMARK  127  A    between atoms: _307  and  _308
REMARK  128  A    between atoms: _307  and  _310
REMARK  129  A    between atoms: _310  and  _311
REMARK  130  A    between atoms: _314  and  _316
REMARK  131  A    between atoms: _316  and  _317
REMARK  132  A    between atoms: _316  and  _319
REMARK  133  A    between atoms: _319  and  _320
REMARK  134  A    between atoms: _325  and  _326
REMARK  135  A    between atoms: _328  and  _330
REMARK  136  A    between atoms: _330  and  _331
REMARK  137  A    between atoms: _330  and  _333
REMARK  138  A    between atoms: _336  and  _338
REMARK  139  A    between atoms: _338  and  _339
REMARK  140  A    between atoms: _342  and  _344
REMARK  141  A    between atoms: _344  and  _345
REMARK  142  A    between atoms: _344  and  _347
REMARK  143  A    between atoms: _347  and  _348
REMARK  144  A    between atoms: _348  and  _349
REMARK  145  A    between atoms: _349  and  _350
REMARK  146  A    between atoms: _359  and  _361
REMARK  147  A    between atoms: _361  and  _362
REMARK  148  A    between atoms: _361  and  _364
REMARK  149  A    between atoms: _364  and  _365
REMARK  150  A    between atoms: _365  and  _366
REMARK  151  A    between atoms: _366  and  _367
REMARK  152  A    between atoms: _376  and  _378
REMARK  153  A    between atoms: _378  and  _379
REMARK  154  A    between atoms: _378  and  _381
REMARK  155  A    between atoms: _381  and  _382
REMARK  156  A    between atoms: _385  and  _387
REMARK  157  A    between atoms: _387  and  _388
REMARK  158  A    between atoms: _390  and  _392
REMARK  159  A    between atoms: _392  and  _393
REMARK  160  A    between atoms: _392  and  _395
REMARK  161  A    between atoms: _395  and  _396
REMARK  162  A    between atoms: _396  and  _397
REMARK  163  A    between atoms: _400  and  _402
REMARK  164  A    between atoms: _402  and  _403
REMARK  165  A    between atoms: _402  and  _405
REMARK  166  A    between atoms: _405  and  _406
REMARK  167  A    between atoms: _408  and  _410
REMARK  168  A    between atoms: _410  and  _411
REMARK  169  A    between atoms: _410  and  _413
REMARK  170  A    between atoms: _413  and  _414
REMARK  171  A    between atoms: _417  and  _419
REMARK  172  A    between atoms: _419  and  _420
REMARK  173  A    between atoms: _419  and  _422
REMARK  174  A    between atoms: _422  and  _423
REMARK  175  A    between atoms: _423  and  _424
REMARK  176  A    between atoms: _429  and  _431
REMARK  177  A    between atoms: _431  and  _432
REMARK  178  A    between atoms: _431  and  _434
REMARK  179  A    between atoms: _434  and  _435
REMARK  180  A    between atoms: _438  and  _440
REMARK  181  A    between atoms: _440  and  _441
REMARK  182  A    between atoms: _440  and  _443
REMARK  183  A    between atoms: _443  and  _444
REMARK  184  A    between atoms: _449  and  _451
REMARK  185  A    between atoms: _451  and  _452
REMARK  186  A    between atoms: _451  and  _454
REMARK  187  A    between atoms: _457  and  _459
REMARK  188  A    between atoms: _459  and  _460
REMARK  189  A    between atoms: _459  and  _462
REMARK  190  A    between atoms: _462  and  _463
REMARK  191  A    between atoms: _466  and  _468
REMARK  192  A    between atoms: _468  and  _469
REMARK  193  A    between atoms: _468  and  _471
REMARK  194  A    between atoms: _474  and  _476
REMARK  195  A    between atoms: _476  and  _477
REMARK  196  A    between atoms: _476  and  _479
REMARK  197  A    between atoms: _479  and  _480
REMARK  198  A    between atoms: _486  and  _488
REMARK  199  A    between atoms: _488  and  _489
REMARK  200  A    between atoms: _492  and  _494
REMARK  201  A    between atoms: _494  and  _495
REMARK  202  A    between atoms: _494  and  _497
REMARK  203  A    between atoms: _497  and  _498
REMARK  204  A    between atoms: _501  and  _503
REMARK  205  A    between atoms: _503  and  _504
REMARK  206  A    between atoms: _503  and  _506
REMARK  207  A    between atoms: _506  and  _507
REMARK  208  A    between atoms: _510  and  _512
REMARK  209  A    between atoms: _512  and  _513
REMARK  210  A    between atoms: _512  and  _515
REMARK  211  A    between atoms: _515  and  _516
REMARK  212  A    between atoms: _516  and  _517
REMARK  213  A    between atoms: _520  and  _522
REMARK  214  A    between atoms: _522  and  _523
REMARK  215  A    between atoms: _526  and  _528
REMARK  216  A    between atoms: _528  and  _529
REMARK  217  A    between atoms: _532  and  _534
REMARK  218  A    between atoms: _534  and  _535
REMARK  219  A    between atoms: _534  and  _537
REMARK  220  A    between atoms: _537  and  _538
REMARK  221  A    between atoms: _543  and  _544
REMARK                            x       y       z     vdW  Elec       q    Type
REMARK                         _______ _______ _______ _____ _____    ______ ____
ROOT
ATOM      1  CA  ALA A   1      61.163  26.774  60.144  0.00  0.00    +0.133 C 
ATOM      2  CB  ALA A   1      59.824  26.788  59.423  0.00  0.00    +0.027 C 
ENDROOT
BRANCH   1   3
ATOM      3  N   ALA A   1      61.349  28.002  60.913  0.00  0.00    -0.239 NA
ATOM      4  H   ALA A   1      60.829  28.861  60.640  0.00  0.00    +0.142 HD
ENDBRANCH   1   3
BRANCH   1   5
ATOM      5  C   ALA A   1      62.316  26.523  59.174  0.00  0.00    +0.224 C 
ATOM      6  O   ALA A   1      62.594  25.374  58.856  0.00  0.00    -0.287 OA
ENDBRANCH   1   5
TORSDOF 2
REMARK  Name = ../refined-set-2016/3acx/3acx_pocket.pdb
REMARK  221 active torsions:
REMARK  status: ('A' for Active; 'I' for Inactive)
REMARK    1  A    between atoms: _1  and  _3
REMARK    2  A    between atoms: _3  and  _4
REMARK    3  A    between atoms: _3  and  _6
REMARK    4  A    between atoms: _6  and  _7
REMARK    5  A    between atoms: _10  and  _12
REMARK    6  A    between atoms: _12  and  _13
REMARK    7  A    between atoms: _12  and  _15
REMARK    8  A    between atoms: _15  and  _16
REMARK    9  A    between atoms: _16  and  _17
REMARK   10  A    between atoms: _19  and  _21
REMARK   11  A    between atoms: _21  and  _22
REMARK   12  A    between atoms: _21  and  _24
REMARK   13  A    between atoms: _24  and  _25
REMARK   14  A    between atoms: _30  and  _32
REMARK   15  A    between atoms: _32  and  _33
REMARK   16  A    between atoms: _32  and  _35
REMARK   17  A    between atoms: _35  and  _36
REMARK   18  A    between atoms: _38  and  _40
REMARK   19  A    between atoms: _40  and  _41
REMARK   20  A    between atoms: _40  and  _43
REMARK   21  A    between atoms: _43  and  _44
REMARK   22  A    between atoms: _46  and  _48
REMARK   23  A    between atoms: _48  and  _49
REMARK   24  A    between atoms: _48  and  _51
REMARK   25  A    between atoms: _51  and  _52
REMARK   26  A    between atoms: _58  and  _60
REMARK   27  A    between atoms: _60  and  _61
REMARK   28  A    between atoms: _60  and  _63
REMARK   29  A    between atoms: _63  and  _64
REMARK   30  A    between atoms: _66  and  _68
REMARK   31  A    between atoms: _68  and  _69
REMARK   32  A    between atoms: _68  and  _71
REMARK   33  A    between atoms: _71  and  _72
REMARK   34  A    between atoms: _78  and  _80
REMARK   35  A    between atoms: _80  and  _81
REMARK   36  A    between atoms: _80  and  _83
REMARK   37  A    between atoms: _86  and  _88
REMARK   38  A    between atoms: _88  and  _89
REMARK   39  A    between atoms: _88  and  _91
REMARK   40  A    between atoms: _91  and  _92
REMARK   41  A    between atoms: _102  and  _104
REMARK   42  A    between atoms: _104  and  _105
REMARK   43  A    between atoms: _104  and  _107
REMARK   44  A    between atoms: _107  and  _108
REMARK   45  A    between atoms: _111  and  _113
REMARK   46  A    between atoms: _113  and  _114
REMARK   47  A    between atoms: _113  and  _116
REMARK   48  A    between atoms: _116  and  _117
REMARK   49  A    between atoms: _122  and  _123
REMARK   50  A    between atoms: _125  and  _127
REMARK   51  A    between atoms: _127  and  _128
REMARK   52  A    between atoms: _131  and  _133
REMARK   53  A    between atoms: _133  and  _134
REMARK   54  A    between atoms: _133  and  _136
REMARK   55  A    between atoms: _139  and  _141
REMARK   56  A    between atoms: _141  and  _142
REMARK   57  A    between atoms: _141  and  _144
REMARK   58  A    between atoms: _146  and  _148
REMARK   59  A    between atoms: _148  and  _149
REMARK   60  A    between atoms: _148  and  _151
REMARK   61  A    between atoms: _151  and  _152
REMARK   62  A    between atoms: _152  and  _153
REMARK   63  A    between atoms: _153  and  _154
REMARK   64  A    between atoms: _163  and  _165
REMARK   65  A    between atoms: _165  and  _166
REMARK   66  A    between atoms: _165  and  _168
REMARK   67  A    between atoms: _168  and  _169
REMARK   68  A    between atoms: _169  and  _170
REMARK   69  A    between atoms: _170  and  _171
REMARK   70  A    between atoms: _171  and  _172
REMARK   71  A    between atoms: _176  and  _178
REMARK   72  A    between atoms: _178  and  _179
REMARK   73  A    between atoms: _178  and  _181
REMARK   74  A    between atoms: _181  and  _182
REMARK   75  A    between atoms: _185  and  _187
REMARK   76  A    between atoms: _187  and  _188
REMARK   77  A    between atoms: _187  and  _190
REMARK   78  A    between atoms: _190  and  _191
REMARK   79  A    between atoms: _194  and  _196
REMARK   80  A    between atoms: _196  and  _197
REMARK   81  A    between atoms: _196  and  _199
REMARK   82  A    between atoms: _199  and  _200
REMARK   83  A    between atoms: _203  and  _205
REMARK   84  A    between atoms: _205  and  _206
REMARK   85  A    between atoms: _205  and  _208
REMARK   86  A    between atoms: _208  and  _209
REMARK   87  A    between atoms: _212  and  _214
REMARK   88  A    between atoms: _214  and  _215
REMARK   89  A    between atoms: _214  and  _217
REMARK   90  A    between atoms: _219  and  _221
REMARK   91  A    between atoms: _221  and  _222
REMARK   92  A    between atoms: _221  and  _224
REMARK   93  A    between atoms: _227  and  _229
REMARK   94  A    between atoms: _229  and  _230
REMARK   95  A    between atoms: _233  and  _235
REMARK   96  A    between atoms: _235  and  _236
REMARK   97  A    between atoms: _238  and  _240
REMARK   98  A    between atoms: _240  and  _241
REMARK   99  A    between atoms: _240  and  _243
REMARK  100  A    between atoms: _243  and  _244
REMARK  101  A    between atoms: _247  and  _249
REMARK  102  A    between atoms: _249  and  _250
REMARK  103  A    between atoms: _249  and  _252
REMARK  104  A    between atoms: _255  and  _257
REMARK  105  A    between atoms: _257  and  _258
REMARK  106  A    between atoms: _260  and  _262
REMARK  107  A    between atoms: _262  and  _263
REMARK  108  A    between atoms: _262  and  _265
REMARK  109  A    between atoms: _265  and  _266
REMARK  110  A    between atoms: _266  and  _267
REMARK  111  A    between atoms: _270  and  _272
REMARK  112  A    between atoms: _272  and  _273
REMARK  113  A    between atoms: _272  and  _275
REMARK  114  A    between atoms: _278  and  _280
REMARK  115  A    between atoms: _280  and  _281
REMARK  116  A    between atoms: _280  and  _283
REMARK  117  A    between atoms: _283  and  _284
REMARK  118  A    between atoms: _287  and  _289
REMARK  119  A    between atoms: _289  and  _290
REMARK  120  A    between atoms: _289  and  _292
REMARK  121  A    between atoms: _292  and  _293
REMARK  122  A    between atoms: _296  and  _298
REMARK  123  A    between atoms: _298  and  _299
REMARK  124  A    between atoms: _298  and  _301
REMARK  125  A    between atoms: _301  and  _302
REMARK  126  A    between atoms: _305  and  _307
REMARK  127  A    between atoms: _307  and  _308
REMARK  128  A    between atoms: _307  and  _310
REMARK  129  A    between atoms: _310  and  _311
REMARK  130  A    between atoms: _314  and  _316
REMARK  131  A    between atoms: _316  and  _317
REMARK  132  A    between atoms: _316  and  _319
REMARK  133  A    between atoms: _319  and  _320
REMARK  134  A    between atoms: _325  and  _326
REMARK  135  A    between atoms: _328  and  _330
REMARK  136  A    between atoms: _330  and  _331
REMARK  137  A    between atoms: _330  and  _333
REMARK  138  A    between atoms: _336  and  _338
REMARK  139  A    between atoms: _338  and  _339
REMARK  140  A    between atoms: _342  and  _344
REMARK  141  A    between atoms: _344  and  _345
REMARK  142  A    between atoms: _344  and  _347
REMARK  143  A    between atoms: _347  and  _348
REMARK  144  A    between atoms: _348  and  _349
REMARK  145  A    between atoms: _349  and  _350
REMARK  146  A    between atoms: _359  and  _361
REMARK  147  A    between atoms: _361  and  _362
REMARK  148  A    between atoms: _361  and  _364
REMARK  149  A    between atoms: _364  and  _365
REMARK  150  A    between atoms: _365  and  _366
REMARK  151  A    between atoms: _366  and  _367
REMARK  152  A    between atoms: _376  and  _378
REMARK  153  A    between atoms: _378  and  _379
REMARK  154  A    between atoms: _378  and  _381
REMARK  155  A    between atoms: _381  and  _382
REMARK  156  A    between atoms: _385  and  _387
REMARK  157  A    between atoms: _387  and  _388
REMARK  158  A    between atoms: _390  and  _392
REMARK  159  A    between atoms: _392  and  _393
REMARK  160  A    between atoms: _392  and  _395
REMARK  161  A    between atoms: _395  and  _396
REMARK  162  A    between atoms: _396  and  _397
REMARK  163  A    between atoms: _400  and  _402
REMARK  164  A    between atoms: _402  and  _403
REMARK  165  A    between atoms: _402  and  _405
REMARK  166  A    between atoms: _405  and  _406
REMARK  167  A    between atoms: _408  and  _410
REMARK  168  A    between atoms: _410  and  _411
REMARK  169  A    between atoms: _410  and  _413
REMARK  170  A    between atoms: _413  and  _414
REMARK  171  A    between atoms: _417  and  _419
REMARK  172  A    between atoms: _419  and  _420
REMARK  173  A    between atoms: _419  and  _422
REMARK  174  A    between atoms: _422  and  _423
REMARK  175  A    between atoms: _423  and  _424
REMARK  176  A    between atoms: _429  and  _431
REMARK  177  A    between atoms: _431  and  _432
REMARK  178  A    between atoms: _431  and  _434
REMARK  179  A    between atoms: _434  and  _435
REMARK  180  A    between atoms: _438  and  _440
REMARK  181  A    between atoms: _440  and  _441
REMARK  182  A    between atoms: _440  and  _443
REMARK  183  A    between atoms: _443  and  _444
REMARK  184  A    between atoms: _449  and  _451
REMARK  185  A    between atoms: _451  and  _452
REMARK  186  A    between atoms: _451  and  _454
REMARK  187  A    between atoms: _457  and  _459
REMARK  188  A    between atoms: _459  and  _460
REMARK  189  A    between atoms: _459  and  _462
REMARK  190  A    between atoms: _462  and  _463
REMARK  191  A    between atoms: _466  and  _468
REMARK  192  A    between atoms: _468  and  _469
REMARK  193  A    between atoms: _468  and  _471
REMARK  194  A    between atoms: _474  and  _476
REMARK  195  A    between atoms: _476  and  _477
REMARK  196  A    between atoms: _476  and  _479
REMARK  197  A    between atoms: _479  and  _480
REMARK  198  A    between atoms: _486  and  _488
REMARK  199  A    between atoms: _488  and  _489
REMARK  200  A    between atoms: _492  and  _494
REMARK  201  A    between atoms: _494  and  _495
REMARK  202  A    between atoms: _494  and  _497
REMARK  203  A    between atoms: _497  and  _498
REMARK  204  A    between atoms: _501  and  _503
REMARK  205  A    between atoms: _503  and  _504
REMARK  206  A    between atoms: _503  and  _506
REMARK  207  A    between atoms: _506  and  _507
REMARK  208  A    between atoms: _510  and  _512
REMARK  209  A    between atoms: _512  and  _513
REMARK  210  A    between atoms: _512  and  _515
REMARK  211  A    between atoms: _515  and  _516
REMARK  212  A    between atoms: _516  and  _517
REMARK  213  A    between atoms: _520  and  _522
REMARK  214  A    between atoms: _522  and  _523
REMARK  215  A    between atoms: _526  and  _528
REMARK  216  A    between atoms: _528  and  _529
REMARK  217  A    between atoms: _532  and  _534
REMARK  218  A    between atoms: _534  and  _535
REMARK  219  A    between atoms: _534  and  _537
REMARK  220  A    between atoms: _537  and  _538
REMARK  221  A    between atoms: _543  and  _544
REMARK                            x       y       z     vdW  Elec       q    Type
REMARK                         _______ _______ _______ _____ _____    ______ ____
ROOT
ATOM      1  CA  ILE A   2      63.147  22.324  56.677  0.00  0.00    +0.148 C 
ENDROOT
BRANCH   1   4
ATOM      2  C   ILE A   1      63.941  22.001  58.945  0.00  0.00    +0.238 C 
ATOM      3  O   ILE A   1      64.117  20.797  58.768  0.00  0.00    -0.274 OA
ATOM      4  N   ILE A   2      63.460  22.815  58.008  0.00  0.00    -0.297 N 
ATOM      5  H   ILE A   2      63.306  23.819  58.232  0.00  0.00    +0.150 HD
BRANCH   2   6
ATOM      6  CA  ILE A   1      64.268  22.653  60.286  0.00  0.00    +0.145 C 
BRANCH   6   7
ATOM      7  N   ILE A   1      64.962  23.925  60.082  0.00  0.00    -0.238 NA
ATOM      8  H   ILE A   1      64.470  24.805  60.337  0.00  0.00    +0.142 HD
ENDBRANCH   6   7
BRANCH   6   9
ATOM      9  CB  ILE A   1      62.981  22.823  61.138  0.00  0.00    +0.025 C 
ATOM     10  CG2 ILE A   1      61.979  21.754  60.842  0.00  0.00    +0.002 C 
BRANCH   9  11
ATOM     11  CG1 ILE A   1      63.258  22.651  62.619  0.00  0.00    +0.002 C 
ATOM     12  CD1 ILE A   1      63.688  23.873  63.250  0.00  0.00    +0.000 C 
ENDBRANCH   9  11
ENDBRANCH   6   9
ENDBRANCH   2   6
ENDBRANCH   1   4
BRANCH   1  13
ATOM     13  C   ILE A   2      64.433  21.913  55.967  0.00  0.00    +0.241 C 
ATOM     14  N   GLU A   3      65.482  22.726  56.064  0.00  0.00    -0.298 N 
ATOM     15  H   GLU A   3      65.385  23.639  56.553  0.00  0.00    +0.150 HD
ATOM     16  O   ILE A   2      64.454  20.874  55.312  0.00  0.00    -0.273 OA
BRANCH  14  17
ATOM     17  CA  GLU A   3      66.774  22.343  55.485  0.00  0.00    +0.137 C 
BRANCH  17  18
ATOM     18  C   GLU A   3      67.243  21.006  56.057  0.00  0.00    +0.227 C 
ATOM     19  O   GLU A   3      67.698  20.132  55.315  0.00  0.00    -0.286 OA
ENDBRANCH  17  18
BRANCH  17  20
ATOM     20  CB  GLU A   3      67.841  23.402  55.768  0.00  0.00    +0.039 C 
BRANCH  20  21
ATOM     21  CG  GLU A   3      69.133  23.091  55.028  0.00  0.00    +0.116 C 
BRANCH  21  22
ATOM     22  CD  GLU A   3      70.092  24.248  54.926  0.00  0.00    +0.365 C 
ATOM     23  OE2 GLU A   3      69.741  25.373  55.319  0.00  0.00    -0.246 OA
ATOM     24  OE1 GLU A   3      71.234  23.983  54.517  0.00  0.00    -0.246 OA
ENDBRANCH  21  22
ENDBRANCH  20  21
ENDBRANCH  17  20
ENDBRANCH  14  17
ENDBRANCH   1  13
BRANCH   1  25
ATOM     25  CB  ILE A   2      62.355  23.387  55.892  0.00  0.00    +0.027 C 
ATOM     26  CG2 ILE A   2      62.252  22.984  54.426  0.00  0.00    +0.002 C 
BRANCH  25  27
ATOM     27  CG1 ILE A   2      60.993  23.610  56.554  0.00  0.00    +0.002 C 
ATOM     28  CD1 ILE A   2      60.310  24.874  56.073  0.00  0.00    +0.000 C 
ENDBRANCH  25  27
ENDBRANCH   1  25
TORSDOF 13
REMARK  Name = ../refined-set-2016/3acx/3acx_pocket.pdb
REMARK  221 active torsions:
REMARK  status: ('A' for Active; 'I' for Inactive)
REMARK    1  A    between atoms: _1  and  _3
REMARK    2  A    between atoms: _3  and  _4
REMARK    3  A    between atoms: _3  and  _6
REMARK    4  A    between atoms: _6  and  _7
REMARK    5  A    between atoms: _10  and  _12
REMARK    6  A    between atoms: _12  and  _13
REMARK    7  A    between atoms: _12  and  _15
REMARK    8  A    between atoms: _15  and  _16
REMARK    9  A    between atoms: _16  and  _17
REMARK   10  A    between atoms: _19  and  _21
REMARK   11  A    between atoms: _21  and  _22
REMARK   12  A    between atoms: _21  and  _24
REMARK   13  A    between atoms: _24  and  _25
REMARK   14  A    between atoms: _30  and  _32
REMARK   15  A    between atoms: _32  and  _33
REMARK   16  A    between atoms: _32  and  _35
REMARK   17  A    between atoms: _35  and  _36
REMARK   18  A    between atoms: _38  and  _40
REMARK   19  A    between atoms: _40  and  _41
REMARK   20  A    between atoms: _40  and  _43
REMARK   21  A    between atoms: _43  and  _44
REMARK   22  A    between atoms: _46  and  _48
REMARK   23  A    between atoms: _48  and  _49
REMARK   24  A    between atoms: _48  and  _51
REMARK   25  A    between atoms: _51  and  _52
REMARK   26  A    between atoms: _58  and  _60
REMARK   27  A    between atoms: _60  and  _61
REMARK   28  A    between atoms: _60  and  _63
REMARK   29  A    between atoms: _63  and  _64
REMARK   30  A    between atoms: _66  and  _68
REMARK   31  A    between atoms: _68  and  _69
REMARK   32  A    between atoms: _68  and  _71
REMARK   33  A    between atoms: _71  and  _72
REMARK   34  A    between atoms: _78  and  _80
REMARK   35  A    between atoms: _80  and  _81
REMARK   36  A    between atoms: _80  and  _83
REMARK   37  A    between atoms: _86  and  _88
REMARK   38  A    between atoms: _88  and  _89
REMARK   39  A    between atoms: _88  and  _91
REMARK   40  A    between atoms: _91  and  _92
REMARK   41  A    between atoms: _102  and  _104
REMARK   42  A    between atoms: _104  and  _105
REMARK   43  A    between atoms: _104  and  _107
REMARK   44  A    between atoms: _107  and  _108
REMARK   45  A    between atoms: _111  and  _113
REMARK   46  A    between atoms: _113  and  _114
REMARK   47  A    between atoms: _113  and  _116
REMARK   48  A    between atoms: _116  and  _117
REMARK   49  A    between atoms: _122  and  _123
REMARK   50  A    between atoms: _125  and  _127
REMARK   51  A    between atoms: _127  and  _128
REMARK   52  A    between atoms: _131  and  _133
REMARK   53  A    between atoms: _133  and  _134
REMARK   54  A    between atoms: _133  and  _136
REMARK   55  A    between atoms: _139  and  _141
REMARK   56  A    between atoms: _141  and  _142
REMARK   57  A    between atoms: _141  and  _144
REMARK   58  A    between atoms: _146  and  _148
REMARK   59  A    between atoms: _148  and  _149
REMARK   60  A    between atoms: _148  and  _151
REMARK   61  A    between atoms: _151  and  _152
REMARK   62  A    between atoms: _152  and  _153
REMARK   63  A    between atoms: _153  and  _154
REMARK   64  A    between atoms: _163  and  _165
REMARK   65  A    between atoms: _165  and  _166
REMARK   66  A    between atoms: _165  and  _168
REMARK   67  A    between atoms: _168  and  _169
REMARK   68  A    between atoms: _169  and  _170
REMARK   69  A    between atoms: _170  and  _171
REMARK   70  A    between atoms: _171  and  _172
REMARK   71  A    between atoms: _176  and  _178
REMARK   72  A    between atoms: _178  and  _179
REMARK   73  A    between atoms: _178  and  _181
REMARK   74  A    between atoms: _181  and  _182
REMARK   75  A    between atoms: _185  and  _187
REMARK   76  A    between atoms: _187  and  _188
REMARK   77  A    between atoms: _187  and  _190
REMARK   78  A    between atoms: _190  and  _191
REMARK   79  A    between atoms: _194  and  _196
REMARK   80  A    between atoms: _196  and  _197
REMARK   81  A    between atoms: _196  and  _199
REMARK   82  A    between atoms: _199  and  _200
REMARK   83  A    between atoms: _203  and  _205
REMARK   84  A    between atoms: _205  and  _206
REMARK   85  A    between atoms: _205  and  _208
REMARK   86  A    between atoms: _208  and  _209
REMARK   87  A    between atoms: _212  and  _214
REMARK   88  A    between atoms: _214  and  _215
REMARK   89  A    between atoms: _214  and  _217
REMARK   90  A    between atoms: _219  and  _221
REMARK   91  A    between atoms: _221  and  _222
REMARK   92  A    between atoms: _221  and  _224
REMARK   93  A    between atoms: _227  and  _229
REMARK   94  A    between atoms: _229  and  _230
REMARK   95  A    between atoms: _233  and  _235
REMARK   96  A    between atoms: _235  and  _236
REMARK   97  A    between atoms: _238  and  _240
REMARK   98  A    between atoms: _240  and  _241
REMARK   99  A    between atoms: _240  and  _243
REMARK  100  A    between atoms: _243  and  _244
REMARK  101  A    between atoms: _247  and  _249
REMARK  102  A    between atoms: _249  and  _250
REMARK  103  A    between atoms: _249  and  _252
REMARK  104  A    between atoms: _255  and  _257
REMARK  105  A    between atoms: _257  and  _258
REMARK  106  A    between atoms: _260  and  _262
REMARK  107  A    between atoms: _262  and  _263
REMARK  108  A    between atoms: _262  and  _265
REMARK  109  A    between atoms: _265  and  _266
REMARK  110  A    between atoms: _266  and  _267
REMARK  111  A    between atoms: _270  and  _272
REMARK  112  A    between atoms: _272  and  _273
REMARK  113  A    between atoms: _272  and  _275
REMARK  114  A    between atoms: _278  and  _280
REMARK  115  A    between atoms: _280  and  _281
REMARK  116  A    between atoms: _280  and  _283
REMARK  117  A    between atoms: _283  and  _284
REMARK  118  A    between atoms: _287  and  _289
REMARK  119  A    between atoms: _289  and  _290
REMARK  120  A    between atoms: _289  and  _292
REMARK  121  A    between atoms: _292  and  _293
REMARK  122  A    between atoms: _296  and  _298
REMARK  123  A    between atoms: _298  and  _299
REMARK  124  A    between atoms: _298  and  _301
REMARK  125  A    between atoms: _301  and  _302
REMARK  126  A    between atoms: _305  and  _307
REMARK  127  A    between atoms: _307  and  _308
REMARK  128  A    between atoms: _307  and  _310
REMARK  129  A    between atoms: _310  and  _311
REMARK  130  A    between atoms: _314  and  _316
REMARK  131  A    between atoms: _316  and  _317
REMARK  132  A    between atoms: _316  and  _319
REMARK  133  A    between atoms: _319  and  _320
REMARK  134  A    between atoms: _325  and  _326
REMARK  135  A    between atoms: _328  and  _330
REMARK  136  A    between atoms: _330  and  _331
REMARK  137  A    between atoms: _330  and  _333
REMARK  138  A    between atoms: _336  and  _338
REMARK  139  A    between atoms: _338  and  _339
REMARK  140  A    between atoms: _342  and  _344
REMARK  141  A    between atoms: _344  and  _345
REMARK  142  A    between atoms: _344  and  _347
REMARK  143  A    between atoms: _347  and  _348
REMARK  144  A    between atoms: _348  and  _349
REMARK  145  A    between atoms: _349  and  _350
REMARK  146  A    between atoms: _359  and  _361
REMARK  147  A    between atoms: _361  and  _362
REMARK  148  A    between atoms: _361  and  _364
REMARK  149  A    between atoms: _364  and  _365
REMARK  150  A    between atoms: _365  and  _366
REMARK  151  A    between atoms: _366  and  _367
REMARK  152  A    between atoms: _376  and  _378
REMARK  153  A    between atoms: _378  and  _379
REMARK  154  A    between atoms: _378  and  _381
REMARK  155  A    between atoms: _381  and  _382
REMARK  156  A    between atoms: _385  and  _387
REMARK  157  A    between atoms: _387  and  _388
REMARK  158  A    between atoms: _390  and  _392
REMARK  159  A    between atoms: _392  and  _393
REMARK  160  A    between atoms: _392  and  _395
REMARK  161  A    between atoms: _395  and  _396
REMARK  162  A    between atoms: _396  and  _397
REMARK  163  A    between atoms: _400  and  _402
REMARK  164  A    between atoms: _402  and  _403
REMARK  165  A    between atoms: _402  and  _405
REMARK  166  A    between atoms: _405  and  _406
REMARK  167  A    between atoms: _408  and  _410
REMARK  168  A    between atoms: _410  and  _411
REMARK  169  A    between atoms: _410  and  _413
REMARK  170  A    between atoms: _413  and  _414
REMARK  171  A    between atoms: _417  and  _419
REMARK  172  A    between atoms: _419  and  _420
REMARK  173  A    between atoms: _419  and  _422
REMARK  174  A    between atoms: _422  and  _423
REMARK  175  A    between atoms: _423  and  _424
REMARK  176  A    between atoms: _429  and  _431
REMARK  177  A    between atoms: _431  and  _432
REMARK  178  A    between atoms: _431  and  _434
REMARK  179  A    between atoms: _434  and  _435
REMARK  180  A    between atoms: _438  and  _440
REMARK  181  A    between atoms: _440  and  _441
REMARK  182  A    between atoms: _440  and  _443
REMARK  183  A    between atoms: _443  and  _444
REMARK  184  A    between atoms: _449  and  _451
REMARK  185  A    between atoms: _451  and  _452
REMARK  186  A    between atoms: _451  and  _454
REMARK  187  A    between atoms: _457  and  _459
REMARK  188  A    between atoms: _459  and  _460
REMARK  189  A    between atoms: _459  and  _462
REMARK  190  A    between atoms: _462  and  _463
REMARK  191  A    between atoms: _466  and  _468
REMARK  192  A    between atoms: _468  and  _469
REMARK  193  A    between atoms: _468  and  _471
REMARK  194  A    between atoms: _474  and  _476
REMARK  195  A    between atoms: _476  and  _477
REMARK  196  A    between atoms: _476  and  _479
REMARK  197  A    between atoms: _479  and  _480
REMARK  198  A    between atoms: _486  and  _488
REMARK  199  A    between atoms: _488  and  _489
REMARK  200  A    between atoms: _492  and  _494
REMARK  201  A    between atoms: _494  and  _495
REMARK  202  A    between atoms: _494  and  _497
REMARK  203  A    between atoms: _497  and  _498
REMARK  204  A    between atoms: _501  and  _503
REMARK  205  A    between atoms: _503  and  _504
REMARK  206  A    between atoms: _503  and  _506
REMARK  207  A    between atoms: _506  and  _507
REMARK  208  A    between atoms: _510  and  _512
REMARK  209  A    between atoms: _512  and  _513
REMARK  210  A    between atoms: _512  and  _515
REMARK  211  A    between atoms: _515  and  _516
REMARK  212  A    between atoms: _516  and  _517
REMARK  213  A    between atoms: _520  and  _522
REMARK  214  A    between atoms: _522  and  _523
REMARK  215  A    between atoms: _526  and  _528
REMARK  216  A    between atoms: _528  and  _529
REMARK  217  A    between atoms: _532  and  _534
REMARK  218  A    between atoms: _534  and  _535
REMARK  219  A    between atoms: _534  and  _537
REMARK  220  A    between atoms: _537  and  _538
REMARK  221  A    between atoms: _543  and  _544
REMARK                            x       y       z     vdW  Elec       q    Type
REMARK                         _______ _______ _______ _____ _____    ______ ____
ROOT
ATOM      1  C   ALA A   1      64.904  17.065  55.602  0.00  0.00    +0.238 C 
ATOM      2  O   ALA A   1      65.023  15.873  55.302  0.00  0.00    -0.274 OA
ATOM      3  N   ALA A   2      65.053  18.053  54.723  0.00  0.00    -0.298 N 
ATOM      4  H   ALA A   2      64.935  19.036  55.041  0.00  0.00    +0.150 HD
ENDROOT
BRANCH   1   5
ATOM      5  CA  ALA A   1      64.515  17.478  57.017  0.00  0.00    +0.145 C 
ATOM      6  CB  ALA A   1      63.037  17.876  57.078  0.00  0.00    +0.028 C 
BRANCH   5   7
ATOM      7  N   ALA A   1      65.373  18.562  57.490  0.00  0.00    -0.238 NA
ATOM      8  H   ALA A   1      64.948  19.459  57.799  0.00  0.00    +0.142 HD
ENDBRANCH   5   7
ENDBRANCH   1   5
BRANCH   3   9
ATOM      9  CA  ALA A   2      65.376  17.793  53.329  0.00  0.00    +0.137 C 
ATOM     10  CB  ALA A   2      65.287  19.086  52.530  0.00  0.00    +0.030 C 
BRANCH   9  11
ATOM     11  C   ALA A   2      66.761  17.166  53.198  0.00  0.00    +0.227 C 
ATOM     12  O   ALA A   2      66.942  16.228  52.417  0.00  0.00    -0.286 OA
ENDBRANCH   9  11
ENDBRANCH   3   9
TORSDOF 4
REMARK  Name = ../refined-set-2016/3acx/3acx_pocket.pdb
REMARK  221 active torsions:
REMARK  status: ('A' for Active; 'I' for Inactive)
REMARK    1  A    between atoms: _1  and  _3
REMARK    2  A    between atoms: _3  and  _4
REMARK    3  A    between atoms: _3  and  _6
REMARK    4  A    between atoms: _6  and  _7
REMARK    5  A    between atoms: _10  and  _12
REMARK    6  A    between atoms: _12  and  _13
REMARK    7  A    between atoms: _12  and  _15
REMARK    8  A    between atoms: _15  and  _16
REMARK    9  A    between atoms: _16  and  _17
REMARK   10  A    between atoms: _19  and  _21
REMARK   11  A    between atoms: _21  and  _22
REMARK   12  A    between atoms: _21  and  _24
REMARK   13  A    between atoms: _24  and  _25
REMARK   14  A    between atoms: _30  and  _32
REMARK   15  A    between atoms: _32  and  _33
REMARK   16  A    between atoms: _32  and  _35
REMARK   17  A    between atoms: _35  and  _36
REMARK   18  A    between atoms: _38  and  _40
REMARK   19  A    between atoms: _40  and  _41
REMARK   20  A    between atoms: _40  and  _43
REMARK   21  A    between atoms: _43  and  _44
REMARK   22  A    between atoms: _46  and  _48
REMARK   23  A    between atoms: _48  and  _49
REMARK   24  A    between atoms: _48  and  _51
REMARK   25  A    between atoms: _51  and  _52
REMARK   26  A    between atoms: _58  and  _60
REMARK   27  A    between atoms: _60  and  _61
REMARK   28  A    between atoms: _60  and  _63
REMARK   29  A    between atoms: _63  and  _64
REMARK   30  A    between atoms: _66  and  _68
REMARK   31  A    between atoms: _68  and  _69
REMARK   32  A    between atoms: _68  and  _71
REMARK   33  A    between atoms: _71  and  _72
REMARK   34  A    between atoms: _78  and  _80
REMARK   35  A    between atoms: _80  and  _81
REMARK   36  A    between atoms: _80  and  _83
REMARK   37  A    between atoms: _86  and  _88
REMARK   38  A    between atoms: _88  and  _89
REMARK   39  A    between atoms: _88  and  _91
REMARK   40  A    between atoms: _91  and  _92
REMARK   41  A    between atoms: _102  and  _104
REMARK   42  A    between atoms: _104  and  _105
REMARK   43  A    between atoms: _104  and  _107
REMARK   44  A    between atoms: _107  and  _108
REMARK   45  A    between atoms: _111  and  _113
REMARK   46  A    between atoms: _113  and  _114
REMARK   47  A    between atoms: _113  and  _116
REMARK   48  A    between atoms: _116  and  _117
REMARK   49  A    between atoms: _122  and  _123
REMARK   50  A    between atoms: _125  and  _127
REMARK   51  A    between atoms: _127  and  _128
REMARK   52  A    between atoms: _131  and  _133
REMARK   53  A    between atoms: _133  and  _134
REMARK   54  A    between atoms: _133  and  _136
REMARK   55  A    between atoms: _139  and  _141
REMARK   56  A    between atoms: _141  and  _142
REMARK   57  A    between atoms: _141  and  _144
REMARK   58  A    between atoms: _146  and  _148
REMARK   59  A    between atoms: _148  and  _149
REMARK   60  A    between atoms: _148  and  _151
REMARK   61  A    between atoms: _151  and  _152
REMARK   62  A    between atoms: _152  and  _153
REMARK   63  A    between atoms: _153  and  _154
REMARK   64  A    between atoms: _163  and  _165
REMARK   65  A    between atoms: _165  and  _166
REMARK   66  A    between atoms: _165  and  _168
REMARK   67  A    between atoms: _168  and  _169
REMARK   68  A    between atoms: _169  and  _170
REMARK   69  A    between atoms: _170  and  _171
REMARK   70  A    between atoms: _171  and  _172
REMARK   71  A    between atoms: _176  and  _178
REMARK   72  A    between atoms: _178  and  _179
REMARK   73  A    between atoms: _178  and  _181
REMARK   74  A    between atoms: _181  and  _182
REMARK   75  A    between atoms: _185  and  _187
REMARK   76  A    between atoms: _187  and  _188
REMARK   77  A    between atoms: _187  and  _190
REMARK   78  A    between atoms: _190  and  _191
REMARK   79  A    between atoms: _194  and  _196
REMARK   80  A    between atoms: _196  and  _197
REMARK   81  A    between atoms: _196  and  _199
REMARK   82  A    between atoms: _199  and  _200
REMARK   83  A    between atoms: _203  and  _205
REMARK   84  A    between atoms: _205  and  _206
REMARK   85  A    between atoms: _205  and  _208
REMARK   86  A    between atoms: _208  and  _209
REMARK   87  A    between atoms: _212  and  _214
REMARK   88  A    between atoms: _214  and  _215
REMARK   89  A    between atoms: _214  and  _217
REMARK   90  A    between atoms: _219  and  _221
REMARK   91  A    between atoms: _221  and  _222
REMARK   92  A    between atoms: _221  and  _224
REMARK   93  A    between atoms: _227  and  _229
REMARK   94  A    between atoms: _229  and  _230
REMARK   95  A    between atoms: _233  and  _235
REMARK   96  A    between atoms: _235  and  _236
REMARK   97  A    between atoms: _238  and  _240
REMARK   98  A    between atoms: _240  and  _241
REMARK   99  A    between atoms: _240  and  _243
REMARK  100  A    between atoms: _243  and  _244
REMARK  101  A    between atoms: _247  and  _249
REMARK  102  A    between atoms: _249  and  _250
REMARK  103  A    between atoms: _249  and  _252
REMARK  104  A    between atoms: _255  and  _257
REMARK  105  A    between atoms: _257  and  _258
REMARK  106  A    between atoms: _260  and  _262
REMARK  107  A    between atoms: _262  and  _263
REMARK  108  A    between atoms: _262  and  _265
REMARK  109  A    between atoms: _265  and  _266
REMARK  110  A    between atoms: _266  and  _267
REMARK  111  A    between atoms: _270  and  _272
REMARK  112  A    between atoms: _272  and  _273
REMARK  113  A    between atoms: _272  and  _275
REMARK  114  A    between atoms: _278  and  _280
REMARK  115  A    between atoms: _280  and  _281
REMARK  116  A    between atoms: _280  and  _283
REMARK  117  A    between atoms: _283  and  _284
REMARK  118  A    between atoms: _287  and  _289
REMARK  119  A    between atoms: _289  and  _290
REMARK  120  A    between atoms: _289  and  _292
REMARK  121  A    between atoms: _292  and  _293
REMARK  122  A    between atoms: _296  and  _298
REMARK  123  A    between atoms: _298  and  _299
REMARK  124  A    between atoms: _298  and  _301
REMARK  125  A    between atoms: _301  and  _302
REMARK  126  A    between atoms: _305  and  _307
REMARK  127  A    between atoms: _307  and  _308
REMARK  128  A    between atoms: _307  and  _310
REMARK  129  A    between atoms: _310  and  _311
REMARK  130  A    between atoms: _314  and  _316
REMARK  131  A    between atoms: _316  and  _317
REMARK  132  A    between atoms: _316  and  _319
REMARK  133  A    between atoms: _319  and  _320
REMARK  134  A    between atoms: _325  and  _326
REMARK  135  A    between atoms: _328  and  _330
REMARK  136  A    between atoms: _330  and  _331
REMARK  137  A    between atoms: _330  and  _333
REMARK  138  A    between atoms: _336  and  _338
REMARK  139  A    between atoms: _338  and  _339
REMARK  140  A    between atoms: _342  and  _344
REMARK  141  A    between atoms: _344  and  _345
REMARK  142  A    between atoms: _344  and  _347
REMARK  143  A    between atoms: _347  and  _348
REMARK  144  A    between atoms: _348  and  _349
REMARK  145  A    between atoms: _349  and  _350
REMARK  146  A    between atoms: _359  and  _361
REMARK  147  A    between atoms: _361  and  _362
REMARK  148  A    between atoms: _361  and  _364
REMARK  149  A    between atoms: _364  and  _365
REMARK  150  A    between atoms: _365  and  _366
REMARK  151  A    between atoms: _366  and  _367
REMARK  152  A    between atoms: _376  and  _378
REMARK  153  A    between atoms: _378  and  _379
REMARK  154  A    between atoms: _378  and  _381
REMARK  155  A    between atoms: _381  and  _382
REMARK  156  A    between atoms: _385  and  _387
REMARK  157  A    between atoms: _387  and  _388
REMARK  158  A    between atoms: _390  and  _392
REMARK  159  A    between atoms: _392  and  _393
REMARK  160  A    between atoms: _392  and  _395
REMARK  161  A    between atoms: _395  and  _396
REMARK  162  A    between atoms: _396  and  _397
REMARK  163  A    between atoms: _400  and  _402
REMARK  164  A    between atoms: _402  and  _403
REMARK  165  A    between atoms: _402  and  _405
REMARK  166  A    between atoms: _405  and  _406
REMARK  167  A    between atoms: _408  and  _410
REMARK  168  A    between atoms: _410  and  _411
REMARK  169  A    between atoms: _410  and  _413
REMARK  170  A    between atoms: _413  and  _414
REMARK  171  A    between atoms: _417  and  _419
REMARK  172  A    between atoms: _419  and  _420
REMARK  173  A    between atoms: _419  and  _422
REMARK  174  A    between atoms: _422  and  _423
REMARK  175  A    between atoms: _423  and  _424
REMARK  176  A    between atoms: _429  and  _431
REMARK  177  A    between atoms: _431  and  _432
REMARK  178  A    between atoms: _431  and  _434
REMARK  179  A    between atoms: _434  and  _435
REMARK  180  A    between atoms: _438  and  _440
REMARK  181  A    between atoms: _440  and  _441
REMARK  182  A    between atoms: _440  and  _443
REMARK  183  A    between atoms: _443  and  _444
REMARK  184  A    between atoms: _449  and  _451
REMARK  185  A    between atoms: _451  and  _452
REMARK  186  A    between atoms: _451  and  _454
REMARK  187  A    between atoms: _457  and  _459
REMARK  188  A    between atoms: _459  and  _460
REMARK  189  A    between atoms: _459  and  _462
REMARK  190  A    between atoms: _462  and  _463
REMARK  191  A    between atoms: _466  and  _468
REMARK  192  A    between atoms: _468  and  _469
REMARK  193  A    between atoms: _468  and  _471
REMARK  194  A    between atoms: _474  and  _476
REMARK  195  A    between atoms: _476  and  _477
REMARK  196  A    between atoms: _476  and  _479
REMARK  197  A    between atoms: _479  and  _480
REMARK  198  A    between atoms: _486  and  _488
REMARK  199  A    between atoms: _488  and  _489
REMARK  200  A    between atoms: _492  and  _494
REMARK  201  A    between atoms: _494  and  _495
REMARK  202  A    between atoms: _494  and  _497
REMARK  203  A    between atoms: _497  and  _498
REMARK  204  A    between atoms: _501  and  _503
REMARK  205  A    between atoms: _503  and  _504
REMARK  206  A    between atoms: _503  and  _506
REMARK  207  A    between atoms: _506  and  _507
REMARK  208  A    between atoms: _510  and  _512
REMARK  209  A    between atoms: _512  and  _513
REMARK  210  A    between atoms: _512  and  _515
REMARK  211  A    between atoms: _515  and  _516
REMARK  212  A    between atoms: _516  and  _517
REMARK  213  A    between atoms: _520  and  _522
REMARK  214  A    between atoms: _522  and  _523
REMARK  215  A    between atoms: _526  and  _528
REMARK  216  A    between atoms: _528  and  _529
REMARK  217  A    between atoms: _532  and  _534
REMARK  218  A    between atoms: _534  and  _535
REMARK  219  A    between atoms: _534  and  _537
REMARK  220  A    between atoms: _537  and  _538
REMARK  221  A    between atoms: _543  and  _544
REMARK                            x       y       z     vdW  Elec       q    Type
REMARK                         _______ _______ _______ _____ _____    ______ ____
ROOT
ATOM      1  CG  TYR A   1      63.618  12.044  53.092  0.00  0.00    -0.020 A 
ATOM      2  CD2 TYR A   1      63.258  11.317  54.232  0.00  0.00    -0.001 A 
ATOM      3  CE2 TYR A   1      62.402  10.259  54.163  0.00  0.00    +0.036 A 
ATOM      4  CZ  TYR A   1      61.846   9.919  52.953  0.00  0.00    +0.134 A 
ATOM      5  CE1 TYR A   1      62.180  10.605  51.797  0.00  0.00    +0.036 A 
ATOM      6  CD1 TYR A   1      63.079  11.657  51.868  0.00  0.00    -0.001 A 
ENDROOT
BRANCH   4   7
ATOM      7  OH  TYR A   1      60.968   8.870  52.930  0.00  0.00    -0.506 OA
ATOM      8  HH  TYR A   1      60.201   9.070  53.523  0.00  0.00    +0.292 HD
ENDBRANCH   4   7
BRANCH   1   9
ATOM      9  CB  TYR A   1      64.598  13.183  53.192  0.00  0.00    +0.051 C 
BRANCH   9  10
ATOM     10  CA  TYR A   1      65.998  12.674  53.516  0.00  0.00    +0.137 C 
BRANCH  10  11
ATOM     11  N   TYR A   1      66.698  13.556  54.427  0.00  0.00    -0.239 NA
ATOM     12  H   TYR A   1      66.357  14.525  54.587  0.00  0.00    +0.142 HD
ENDBRANCH  10  11
BRANCH  10  13
ATOM     13  C   TYR A   1      66.839  12.444  52.266  0.00  0.00    +0.224 C 
ATOM     14  O   TYR A   1      67.010  11.305  51.823  0.00  0.00    -0.287 OA
ENDBRANCH  10  13
ENDBRANCH   9  10
ENDBRANCH   1   9
TORSDOF 5
REMARK  Name = ../refined-set-2016/3acx/3acx_pocket.pdb
REMARK  221 active torsions:
REMARK  status: ('A' for Active; 'I' for Inactive)
REMARK    1  A    between atoms: _1  and  _3
REMARK    2  A    between atoms: _3  and  _4
REMARK    3  A    between atoms: _3  and  _6
REMARK    4  A    between atoms: _6  and  _7
REMARK    5  A    between atoms: _10  and  _12
REMARK    6  A    between atoms: _12  and  _13
REMARK    7  A    between atoms: _12  and  _15
REMARK    8  A    between atoms: _15  and  _16
REMARK    9  A    between atoms: _16  and  _17
REMARK   10  A    between atoms: _19  and  _21
REMARK   11  A    between atoms: _21  and  _22
REMARK   12  A    between atoms: _21  and  _24
REMARK   13  A    between atoms: _24  and  _25
REMARK   14  A    between atoms: _30  and  _32
REMARK   15  A    between atoms: _32  and  _33
REMARK   16  A    between atoms: _32  and  _35
REMARK   17  A    between atoms: _35  and  _36
REMARK   18  A    between atoms: _38  and  _40
REMARK   19  A    between atoms: _40  and  _41
REMARK   20  A    between atoms: _40  and  _43
REMARK   21  A    between atoms: _43  and  _44
REMARK   22  A    between atoms: _46  and  _48
REMARK   23  A    between atoms: _48  and  _49
REMARK   24  A    between atoms: _48  and  _51
REMARK   25  A    between atoms: _51  and  _52
REMARK   26  A    between atoms: _58  and  _60
REMARK   27  A    between atoms: _60  and  _61
REMARK   28  A    between atoms: _60  and  _63
REMARK   29  A    between atoms: _63  and  _64
REMARK   30  A    between atoms: _66  and  _68
REMARK   31  A    between atoms: _68  and  _69
REMARK   32  A    between atoms: _68  and  _71
REMARK   33  A    between atoms: _71  and  _72
REMARK   34  A    between atoms: _78  and  _80
REMARK   35  A    between atoms: _80  and  _81
REMARK   36  A    between atoms: _80  and  _83
REMARK   37  A    between atoms: _86  and  _88
REMARK   38  A    between atoms: _88  and  _89
REMARK   39  A    between atoms: _88  and  _91
REMARK   40  A    between atoms: _91  and  _92
REMARK   41  A    between atoms: _102  and  _104
REMARK   42  A    between atoms: _104  and  _105
REMARK   43  A    between atoms: _104  and  _107
REMARK   44  A    between atoms: _107  and  _108
REMARK   45  A    between atoms: _111  and  _113
REMARK   46  A    between atoms: _113  and  _114
REMARK   47  A    between atoms: _113  and  _116
REMARK   48  A    between atoms: _116  and  _117
REMARK   49  A    between atoms: _122  and  _123
REMARK   50  A    between atoms: _125  and  _127
REMARK   51  A    between atoms: _127  and  _128
REMARK   52  A    between atoms: _131  and  _133
REMARK   53  A    between atoms: _133  and  _134
REMARK   54  A    between atoms: _133  and  _136
REMARK   55  A    between atoms: _139  and  _141
REMARK   56  A    between atoms: _141  and  _142
REMARK   57  A    between atoms: _141  and  _144
REMARK   58  A    between atoms: _146  and  _148
REMARK   59  A    between atoms: _148  and  _149
REMARK   60  A    between atoms: _148  and  _151
REMARK   61  A    between atoms: _151  and  _152
REMARK   62  A    between atoms: _152  and  _153
REMARK   63  A    between atoms: _153  and  _154
REMARK   64  A    between atoms: _163  and  _165
REMARK   65  A    between atoms: _165  and  _166
REMARK   66  A    between atoms: _165  and  _168
REMARK   67  A    between atoms: _168  and  _169
REMARK   68  A    between atoms: _169  and  _170
REMARK   69  A    between atoms: _170  and  _171
REMARK   70  A    between atoms: _171  and  _172
REMARK   71  A    between atoms: _176  and  _178
REMARK   72  A    between atoms: _178  and  _179
REMARK   73  A    between atoms: _178  and  _181
REMARK   74  A    between atoms: _181  and  _182
REMARK   75  A    between atoms: _185  and  _187
REMARK   76  A    between atoms: _187  and  _188
REMARK   77  A    between atoms: _187  and  _190
REMARK   78  A    between atoms: _190  and  _191
REMARK   79  A    between atoms: _194  and  _196
REMARK   80  A    between atoms: _196  and  _197
REMARK   81  A    between atoms: _196  and  _199
REMARK   82  A    between atoms: _199  and  _200
REMARK   83  A    between atoms: _203  and  _205
REMARK   84  A    between atoms: _205  and  _206
REMARK   85  A    between atoms: _205  and  _208
REMARK   86  A    between atoms: _208  and  _209
REMARK   87  A    between atoms: _212  and  _214
REMARK   88  A    between atoms: _214  and  _215
REMARK   89  A    between atoms: _214  and  _217
REMARK   90  A    between atoms: _219  and  _221
REMARK   91  A    between atoms: _221  and  _222
REMARK   92  A    between atoms: _221  and  _224
REMARK   93  A    between atoms: _227  and  _229
REMARK   94  A    between atoms: _229  and  _230
REMARK   95  A    between atoms: _233  and  _235
REMARK   96  A    between atoms: _235  and  _236
REMARK   97  A    between atoms: _238  and  _240
REMARK   98  A    between atoms: _240  and  _241
REMARK   99  A    between atoms: _240  and  _243
REMARK  100  A    between atoms: _243  and  _244
REMARK  101  A    between atoms: _247  and  _249
REMARK  102  A    between atoms: _249  and  _250
REMARK  103  A    between atoms: _249  and  _252
REMARK  104  A    between atoms: _255  and  _257
REMARK  105  A    between atoms: _257  and  _258
REMARK  106  A    between atoms: _260  and  _262
REMARK  107  A    between atoms: _262  and  _263
REMARK  108  A    between atoms: _262  and  _265
REMARK  109  A    between atoms: _265  and  _266
REMARK  110  A    between atoms: _266  and  _267
REMARK  111  A    between atoms: _270  and  _272
REMARK  112  A    between atoms: _272  and  _273
REMARK  113  A    between atoms: _272  and  _275
REMARK  114  A    between atoms: _278  and  _280
REMARK  115  A    between atoms: _280  and  _281
REMARK  116  A    between atoms: _280  and  _283
REMARK  117  A    between atoms: _283  and  _284
REMARK  118  A    between atoms: _287  and  _289
REMARK  119  A    between atoms: _289  and  _290
REMARK  120  A    between atoms: _289  and  _292
REMARK  121  A    between atoms: _292  and  _293
REMARK  122  A    between atoms: _296  and  _298
REMARK  123  A    between atoms: _298  and  _299
REMARK  124  A    between atoms: _298  and  _301
REMARK  125  A    between atoms: _301  and  _302
REMARK  126  A    between atoms: _305  and  _307
REMARK  127  A    between atoms: _307  and  _308
REMARK  128  A    between atoms: _307  and  _310
REMARK  129  A    between atoms: _310  and  _311
REMARK  130  A    between atoms: _314  and  _316
REMARK  131  A    between atoms: _316  and  _317
REMARK  132  A    between atoms: _316  and  _319
REMARK  133  A    between atoms: _319  and  _320
REMARK  134  A    between atoms: _325  and  _326
REMARK  135  A    between atoms: _328  and  _330
REMARK  136  A    between atoms: _330  and  _331
REMARK  137  A    between atoms: _330  and  _333
REMARK  138  A    between atoms: _336  and  _338
REMARK  139  A    between atoms: _338  and  _339
REMARK  140  A    between atoms: _342  and  _344
REMARK  141  A    between atoms: _344  and  _345
REMARK  142  A    between atoms: _344  and  _347
REMARK  143  A    between atoms: _347  and  _348
REMARK  144  A    between atoms: _348  and  _349
REMARK  145  A    between atoms: _349  and  _350
REMARK  146  A    between atoms: _359  and  _361
REMARK  147  A    between atoms: _361  and  _362
REMARK  148  A    between atoms: _361  and  _364
REMARK  149  A    between atoms: _364  and  _365
REMARK  150  A    between atoms: _365  and  _366
REMARK  151  A    between atoms: _366  and  _367
REMARK  152  A    between atoms: _376  and  _378
REMARK  153  A    between atoms: _378  and  _379
REMARK  154  A    between atoms: _378  and  _381
REMARK  155  A    between atoms: _381  and  _382
REMARK  156  A    between atoms: _385  and  _387
REMARK  157  A    between atoms: _387  and  _388
REMARK  158  A    between atoms: _390  and  _392
REMARK  159  A    between atoms: _392  and  _393
REMARK  160  A    between atoms: _392  and  _395
REMARK  161  A    between atoms: _395  and  _396
REMARK  162  A    between atoms: _396  and  _397
REMARK  163  A    between atoms: _400  and  _402
REMARK  164  A    between atoms: _402  and  _403
REMARK  165  A    between atoms: _402  and  _405
REMARK  166  A    between atoms: _405  and  _406
REMARK  167  A    between atoms: _408  and  _410
REMARK  168  A    between atoms: _410  and  _411
REMARK  169  A    between atoms: _410  and  _413
REMARK  170  A    between atoms: _413  and  _414
REMARK  171  A    between atoms: _417  and  _419
REMARK  172  A    between atoms: _419  and  _420
REMARK  173  A    between atoms: _419  and  _422
REMARK  174  A    between atoms: _422  and  _423
REMARK  175  A    between atoms: _423  and  _424
REMARK  176  A    between atoms: _429  and  _431
REMARK  177  A    between atoms: _431  and  _432
REMARK  178  A    between atoms: _431  and  _434
REMARK  179  A    between atoms: _434  and  _435
REMARK  180  A    between atoms: _438  and  _440
REMARK  181  A    between atoms: _440  and  _441
REMARK  182  A    between atoms: _440  and  _443
REMARK  183  A    between atoms: _443  and  _444
REMARK  184  A    between atoms: _449  and  _451
REMARK  185  A    between atoms: _451  and  _452
REMARK  186  A    between atoms: _451  and  _454
REMARK  187  A    between atoms: _457  and  _459
REMARK  188  A    between atoms: _459  and  _460
REMARK  189  A    between atoms: _459  and  _462
REMARK  190  A    between atoms: _462  and  _463
REMARK  191  A    between atoms: _466  and  _468
REMARK  192  A    between atoms: _468  and  _469
REMARK  193  A    between atoms: _468  and  _471
REMARK  194  A    between atoms: _474  and  _476
REMARK  195  A    between atoms: _476  and  _477
REMARK  196  A    between atoms: _476  and  _479
REMARK  197  A    between atoms: _479  and  _480
REMARK  198  A    between atoms: _486  and  _488
REMARK  199  A    between atoms: _488  and  _489
REMARK  200  A    between atoms: _492  and  _494
REMARK  201  A    between atoms: _494  and  _495
REMARK  202  A    between atoms: _494  and  _497
REMARK  203  A    between atoms: _497  and  _498
REMARK  204  A    between atoms: _501  and  _503
REMARK  205  A    between atoms: _503  and  _504
REMARK  206  A    between atoms: _503  and  _506
REMARK  207  A    between atoms: _506  and  _507
REMARK  208  A    between atoms: _510  and  _512
REMARK  209  A    between atoms: _512  and  _513
REMARK  210  A    between atoms: _512  and  _515
REMARK  211  A    between atoms: _515  and  _516
REMARK  212  A    between atoms: _516  and  _517
REMARK  213  A    between atoms: _520  and  _522
REMARK  214  A    between atoms: _522  and  _523
REMARK  215  A    between atoms: _526  and  _528
REMARK  216  A    between atoms: _528  and  _529
REMARK  217  A    between atoms: _532  and  _534
REMARK  218  A    between atoms: _534  and  _535
REMARK  219  A    between atoms: _534  and  _537
REMARK  220  A    between atoms: _537  and  _538
REMARK  221  A    between atoms: _543  and  _544
REMARK                            x       y       z     vdW  Elec       q    Type
REMARK                         _______ _______ _______ _____ _____    ______ ____
ROOT
ATOM      1  O   HOH     1      51.209  11.282  51.954  0.00  0.00    +0.000 OA
ENDROOT
TORSDOF 0
REMARK  Name = ../refined-set-2016/3acx/3acx_pocket.pdb
REMARK  221 active torsions:
REMARK  status: ('A' for Active; 'I' for Inactive)
REMARK    1  A    between atoms: _1  and  _3
REMARK    2  A    between atoms: _3  and  _4
REMARK    3  A    between atoms: _3  and  _6
REMARK    4  A    between atoms: _6  and  _7
REMARK    5  A    between atoms: _10  and  _12
REMARK    6  A    between atoms: _12  and  _13
REMARK    7  A    between atoms: _12  and  _15
REMARK    8  A    between atoms: _15  and  _16
REMARK    9  A    between atoms: _16  and  _17
REMARK   10  A    between atoms: _19  and  _21
REMARK   11  A    between atoms: _21  and  _22
REMARK   12  A    between atoms: _21  and  _24
REMARK   13  A    between atoms: _24  and  _25
REMARK   14  A    between atoms: _30  and  _32
REMARK   15  A    between atoms: _32  and  _33
REMARK   16  A    between atoms: _32  and  _35
REMARK   17  A    between atoms: _35  and  _36
REMARK   18  A    between atoms: _38  and  _40
REMARK   19  A    between atoms: _40  and  _41
REMARK   20  A    between atoms: _40  and  _43
REMARK   21  A    between atoms: _43  and  _44
REMARK   22  A    between atoms: _46  and  _48
REMARK   23  A    between atoms: _48  and  _49
REMARK   24  A    between atoms: _48  and  _51
REMARK   25  A    between atoms: _51  and  _52
REMARK   26  A    between atoms: _58  and  _60
REMARK   27  A    between atoms: _60  and  _61
REMARK   28  A    between atoms: _60  and  _63
REMARK   29  A    between atoms: _63  and  _64
REMARK   30  A    between atoms: _66  and  _68
REMARK   31  A    between atoms: _68  and  _69
REMARK   32  A    between atoms: _68  and  _71
REMARK   33  A    between atoms: _71  and  _72
REMARK   34  A    between atoms: _78  and  _80
REMARK   35  A    between atoms: _80  and  _81
REMARK   36  A    between atoms: _80  and  _83
REMARK   37  A    between atoms: _86  and  _88
REMARK   38  A    between atoms: _88  and  _89
REMARK   39  A    between atoms: _88  and  _91
REMARK   40  A    between atoms: _91  and  _92
REMARK   41  A    between atoms: _102  and  _104
REMARK   42  A    between atoms: _104  and  _105
REMARK   43  A    between atoms: _104  and  _107
REMARK   44  A    between atoms: _107  and  _108
REMARK   45  A    between atoms: _111  and  _113
REMARK   46  A    between atoms: _113  and  _114
REMARK   47  A    between atoms: _113  and  _116
REMARK   48  A    between atoms: _116  and  _117
REMARK   49  A    between atoms: _122  and  _123
REMARK   50  A    between atoms: _125  and  _127
REMARK   51  A    between atoms: _127  and  _128
REMARK   52  A    between atoms: _131  and  _133
REMARK   53  A    between atoms: _133  and  _134
REMARK   54  A    between atoms: _133  and  _136
REMARK   55  A    between atoms: _139  and  _141
REMARK   56  A    between atoms: _141  and  _142
REMARK   57  A    between atoms: _141  and  _144
REMARK   58  A    between atoms: _146  and  _148
REMARK   59  A    between atoms: _148  and  _149
REMARK   60  A    between atoms: _148  and  _151
REMARK   61  A    between atoms: _151  and  _152
REMARK   62  A    between atoms: _152  and  _153
REMARK   63  A    between atoms: _153  and  _154
REMARK   64  A    between atoms: _163  and  _165
REMARK   65  A    between atoms: _165  and  _166
REMARK   66  A    between atoms: _165  and  _168
REMARK   67  A    between atoms: _168  and  _169
REMARK   68  A    between atoms: _169  and  _170
REMARK   69  A    between atoms: _170  and  _171
REMARK   70  A    between atoms: _171  and  _172
REMARK   71  A    between atoms: _176  and  _178
REMARK   72  A    between atoms: _178  and  _179
REMARK   73  A    between atoms: _178  and  _181
REMARK   74  A    between atoms: _181  and  _182
REMARK   75  A    between atoms: _185  and  _187
REMARK   76  A    between atoms: _187  and  _188
REMARK   77  A    between atoms: _187  and  _190
REMARK   78  A    between atoms: _190  and  _191
REMARK   79  A    between atoms: _194  and  _196
REMARK   80  A    between atoms: _196  and  _197
REMARK   81  A    between atoms: _196  and  _199
REMARK   82  A    between atoms: _199  and  _200
REMARK   83  A    between atoms: _203  and  _205
REMARK   84  A    between atoms: _205  and  _206
REMARK   85  A    between atoms: _205  and  _208
REMARK   86  A    between atoms: _208  and  _209
REMARK   87  A    between atoms: _212  and  _214
REMARK   88  A    between atoms: _214  and  _215
REMARK   89  A    between atoms: _214  and  _217
REMARK   90  A    between atoms: _219  and  _221
REMARK   91  A    between atoms: _221  and  _222
REMARK   92  A    between atoms: _221  and  _224
REMARK   93  A    between atoms: _227  and  _229
REMARK   94  A    between atoms: _229  and  _230
REMARK   95  A    between atoms: _233  and  _235
REMARK   96  A    between atoms: _235  and  _236
REMARK   97  A    between atoms: _238  and  _240
REMARK   98  A    between atoms: _240  and  _241
REMARK   99  A    between atoms: _240  and  _243
REMARK  100  A    between atoms: _243  and  _244
REMARK  101  A    between atoms: _247  and  _249
REMARK  102  A    between atoms: _249  and  _250
REMARK  103  A    between atoms: _249  and  _252
REMARK  104  A    between atoms: _255  and  _257
REMARK  105  A    between atoms: _257  and  _258
REMARK  106  A    between atoms: _260  and  _262
REMARK  107  A    between atoms: _262  and  _263
REMARK  108  A    between atoms: _262  and  _265
REMARK  109  A    between atoms: _265  and  _266
REMARK  110  A    between atoms: _266  and  _267
REMARK  111  A    between atoms: _270  and  _272
REMARK  112  A    between atoms: _272  and  _273
REMARK  113  A    between atoms: _272  and  _275
REMARK  114  A    between atoms: _278  and  _280
REMARK  115  A    between atoms: _280  and  _281
REMARK  116  A    between atoms: _280  and  _283
REMARK  117  A    between atoms: _283  and  _284
REMARK  118  A    between atoms: _287  and  _289
REMARK  119  A    between atoms: _289  and  _290
REMARK  120  A    between atoms: _289  and  _292
REMARK  121  A    between atoms: _292  and  _293
REMARK  122  A    between atoms: _296  and  _298
REMARK  123  A    between atoms: _298  and  _299
REMARK  124  A    between atoms: _298  and  _301
REMARK  125  A    between atoms: _301  and  _302
REMARK  126  A    between atoms: _305  and  _307
REMARK  127  A    between atoms: _307  and  _308
REMARK  128  A    between atoms: _307  and  _310
REMARK  129  A    between atoms: _310  and  _311
REMARK  130  A    between atoms: _314  and  _316
REMARK  131  A    between atoms: _316  and  _317
REMARK  132  A    between atoms: _316  and  _319
REMARK  133  A    between atoms: _319  and  _320
REMARK  134  A    between atoms: _325  and  _326
REMARK  135  A    between atoms: _328  and  _330
REMARK  136  A    between atoms: _330  and  _331
REMARK  137  A    between atoms: _330  and  _333
REMARK  138  A    between atoms: _336  and  _338
REMARK  139  A    between atoms: _338  and  _339
REMARK  140  A    between atoms: _342  and  _344
REMARK  141  A    between atoms: _344  and  _345
REMARK  142  A    between atoms: _344  and  _347
REMARK  143  A    between atoms: _347  and  _348
REMARK  144  A    between atoms: _348  and  _349
REMARK  145  A    between atoms: _349  and  _350
REMARK  146  A    between atoms: _359  and  _361
REMARK  147  A    between atoms: _361  and  _362
REMARK  148  A    between atoms: _361  and  _364
REMARK  149  A    between atoms: _364  and  _365
REMARK  150  A    between atoms: _365  and  _366
REMARK  151  A    between atoms: _366  and  _367
REMARK  152  A    between atoms: _376  and  _378
REMARK  153  A    between atoms: _378  and  _379
REMARK  154  A    between atoms: _378  and  _381
REMARK  155  A    between atoms: _381  and  _382
REMARK  156  A    between atoms: _385  and  _387
REMARK  157  A    between atoms: _387  and  _388
REMARK  158  A    between atoms: _390  and  _392
REMARK  159  A    between atoms: _392  and  _393
REMARK  160  A    between atoms: _392  and  _395
REMARK  161  A    between atoms: _395  and  _396
REMARK  162  A    between atoms: _396  and  _397
REMARK  163  A    between atoms: _400  and  _402
REMARK  164  A    between atoms: _402  and  _403
REMARK  165  A    between atoms: _402  and  _405
REMARK  166  A    between atoms: _405  and  _406
REMARK  167  A    between atoms: _408  and  _410
REMARK  168  A    between atoms: _410  and  _411
REMARK  169  A    between atoms: _410  and  _413
REMARK  170  A    between atoms: _413  and  _414
REMARK  171  A    between atoms: _417  and  _419
REMARK  172  A    between atoms: _419  and  _420
REMARK  173  A    between atoms: _419  and  _422
REMARK  174  A    between atoms: _422  and  _423
REMARK  175  A    between atoms: _423  and  _424
REMARK  176  A    between atoms: _429  and  _431
REMARK  177  A    between atoms: _431  and  _432
REMARK  178  A    between atoms: _431  and  _434
REMARK  179  A    between atoms: _434  and  _435
REMARK  180  A    between atoms: _438  and  _440
REMARK  181  A    between atoms: _440  and  _441
REMARK  182  A    between atoms: _440  and  _443
REMARK  183  A    between atoms: _443  and  _444
REMARK  184  A    between atoms: _449  and  _451
REMARK  185  A    between atoms: _451  and  _452
REMARK  186  A    between atoms: _451  and  _454
REMARK  187  A    between atoms: _457  and  _459
REMARK  188  A    between atoms: _459  and  _460
REMARK  189  A    between atoms: _459  and  _462
REMARK  190  A    between atoms: _462  and  _463
REMARK  191  A    between atoms: _466  and  _468
REMARK  192  A    between atoms: _468  and  _469
REMARK  193  A    between atoms: _468  and  _471
REMARK  194  A    between atoms: _474  and  _476
REMARK  195  A    between atoms: _476  and  _477
REMARK  196  A    between atoms: _476  and  _479
REMARK  197  A    between atoms: _479  and  _480
REMARK  198  A    between atoms: _486  and  _488
REMARK  199  A    between atoms: _488  and  _489
REMARK  200  A    between atoms: _492  and  _494
REMARK  201  A    between atoms: _494  and  _495
REMARK  202  A    between atoms: _494  and  _497
REMARK  203  A    between atoms: _497  and  _498
REMARK  204  A    between atoms: _501  and  _503
REMARK  205  A    between atoms: _503  and  _504
REMARK  206  A    between atoms: _503  and  _506
REMARK  207  A    between atoms: _506  and  _507
REMARK  208  A    between atoms: _510  and  _512
REMARK  209  A    between atoms: _512  and  _513
REMARK  210  A    between atoms: _512  and  _515
REMARK  211  A    between atoms: _515  and  _516
REMARK  212  A    between atoms: _516  and  _517
REMARK  213  A    between atoms: _520  and  _522
REMARK  214  A    between atoms: _522  and  _523
REMARK  215  A    between atoms: _526  and  _528
REMARK  216  A    between atoms: _528  and  _529
REMARK  217  A    between atoms: _532  and  _534
REMARK  218  A    between atoms: _534  and  _535
REMARK  219  A    between atoms: _534  and  _537
REMARK  220  A    between atoms: _537  and  _538
REMARK  221  A    between atoms: _543  and  _544
REMARK                            x       y       z     vdW  Elec       q    Type
REMARK                         _______ _______ _______ _____ _____    ______ ____
ROOT
ATOM      1  O   HOH     1      57.239  13.667  64.784  0.00  0.00    +0.000 OA
ENDROOT
TORSDOF 0
REMARK  Name = ../refined-set-2016/3acx/3acx_pocket.pdb
REMARK  221 active torsions:
REMARK  status: ('A' for Active; 'I' for Inactive)
REMARK    1  A    between atoms: _1  and  _3
REMARK    2  A    between atoms: _3  and  _4
REMARK    3  A    between atoms: _3  and  _6
REMARK    4  A    between atoms: _6  and  _7
REMARK    5  A    between atoms: _10  and  _12
REMARK    6  A    between atoms: _12  and  _13
REMARK    7  A    between atoms: _12  and  _15
REMARK    8  A    between atoms: _15  and  _16
REMARK    9  A    between atoms: _16  and  _17
REMARK   10  A    between atoms: _19  and  _21
REMARK   11  A    between atoms: _21  and  _22
REMARK   12  A    between atoms: _21  and  _24
REMARK   13  A    between atoms: _24  and  _25
REMARK   14  A    between atoms: _30  and  _32
REMARK   15  A    between atoms: _32  and  _33
REMARK   16  A    between atoms: _32  and  _35
REMARK   17  A    between atoms: _35  and  _36
REMARK   18  A    between atoms: _38  and  _40
REMARK   19  A    between atoms: _40  and  _41
REMARK   20  A    between atoms: _40  and  _43
REMARK   21  A    between atoms: _43  and  _44
REMARK   22  A    between atoms: _46  and  _48
REMARK   23  A    between atoms: _48  and  _49
REMARK   24  A    between atoms: _48  and  _51
REMARK   25  A    between atoms: _51  and  _52
REMARK   26  A    between atoms: _58  and  _60
REMARK   27  A    between atoms: _60  and  _61
REMARK   28  A    between atoms: _60  and  _63
REMARK   29  A    between atoms: _63  and  _64
REMARK   30  A    between atoms: _66  and  _68
REMARK   31  A    between atoms: _68  and  _69
REMARK   32  A    between atoms: _68  and  _71
REMARK   33  A    between atoms: _71  and  _72
REMARK   34  A    between atoms: _78  and  _80
REMARK   35  A    between atoms: _80  and  _81
REMARK   36  A    between atoms: _80  and  _83
REMARK   37  A    between atoms: _86  and  _88
REMARK   38  A    between atoms: _88  and  _89
REMARK   39  A    between atoms: _88  and  _91
REMARK   40  A    between atoms: _91  and  _92
REMARK   41  A    between atoms: _102  and  _104
REMARK   42  A    between atoms: _104  and  _105
REMARK   43  A    between atoms: _104  and  _107
REMARK   44  A    between atoms: _107  and  _108
REMARK   45  A    between atoms: _111  and  _113
REMARK   46  A    between atoms: _113  and  _114
REMARK   47  A    between atoms: _113  and  _116
REMARK   48  A    between atoms: _116  and  _117
REMARK   49  A    between atoms: _122  and  _123
REMARK   50  A    between atoms: _125  and  _127
REMARK   51  A    between atoms: _127  and  _128
REMARK   52  A    between atoms: _131  and  _133
REMARK   53  A    between atoms: _133  and  _134
REMARK   54  A    between atoms: _133  and  _136
REMARK   55  A    between atoms: _139  and  _141
REMARK   56  A    between atoms: _141  and  _142
REMARK   57  A    between atoms: _141  and  _144
REMARK   58  A    between atoms: _146  and  _148
REMARK   59  A    between atoms: _148  and  _149
REMARK   60  A    between atoms: _148  and  _151
REMARK   61  A    between atoms: _151  and  _152
REMARK   62  A    between atoms: _152  and  _153
REMARK   63  A    between atoms: _153  and  _154
REMARK   64  A    between atoms: _163  and  _165
REMARK   65  A    between atoms: _165  and  _166
REMARK   66  A    between atoms: _165  and  _168
REMARK   67  A    between atoms: _168  and  _169
REMARK   68  A    between atoms: _169  and  _170
REMARK   69  A    between atoms: _170  and  _171
REMARK   70  A    between atoms: _171  and  _172
REMARK   71  A    between atoms: _176  and  _178
REMARK   72  A    between atoms: _178  and  _179
REMARK   73  A    between atoms: _178  and  _181
REMARK   74  A    between atoms: _181  and  _182
REMARK   75  A    between atoms: _185  and  _187
REMARK   76  A    between atoms: _187  and  _188
REMARK   77  A    between atoms: _187  and  _190
REMARK   78  A    between atoms: _190  and  _191
REMARK   79  A    between atoms: _194  and  _196
REMARK   80  A    between atoms: _196  and  _197
REMARK   81  A    between atoms: _196  and  _199
REMARK   82  A    between atoms: _199  and  _200
REMARK   83  A    between atoms: _203  and  _205
REMARK   84  A    between atoms: _205  and  _206
REMARK   85  A    between atoms: _205  and  _208
REMARK   86  A    between atoms: _208  and  _209
REMARK   87  A    between atoms: _212  and  _214
REMARK   88  A    between atoms: _214  and  _215
REMARK   89  A    between atoms: _214  and  _217
REMARK   90  A    between atoms: _219  and  _221
REMARK   91  A    between atoms: _221  and  _222
REMARK   92  A    between atoms: _221  and  _224
REMARK   93  A    between atoms: _227  and  _229
REMARK   94  A    between atoms: _229  and  _230
REMARK   95  A    between atoms: _233  and  _235
REMARK   96  A    between atoms: _235  and  _236
REMARK   97  A    between atoms: _238  and  _240
REMARK   98  A    between atoms: _240  and  _241
REMARK   99  A    between atoms: _240  and  _243
REMARK  100  A    between atoms: _243  and  _244
REMARK  101  A    between atoms: _247  and  _249
REMARK  102  A    between atoms: _249  and  _250
REMARK  103  A    between atoms: _249  and  _252
REMARK  104  A    between atoms: _255  and  _257
REMARK  105  A    between atoms: _257  and  _258
REMARK  106  A    between atoms: _260  and  _262
REMARK  107  A    between atoms: _262  and  _263
REMARK  108  A    between atoms: _262  and  _265
REMARK  109  A    between atoms: _265  and  _266
REMARK  110  A    between atoms: _266  and  _267
REMARK  111  A    between atoms: _270  and  _272
REMARK  112  A    between atoms: _272  and  _273
REMARK  113  A    between atoms: _272  and  _275
REMARK  114  A    between atoms: _278  and  _280
REMARK  115  A    between atoms: _280  and  _281
REMARK  116  A    between atoms: _280  and  _283
REMARK  117  A    between atoms: _283  and  _284
REMARK  118  A    between atoms: _287  and  _289
REMARK  119  A    between atoms: _289  and  _290
REMARK  120  A    between atoms: _289  and  _292
REMARK  121  A    between atoms: _292  and  _293
REMARK  122  A    between atoms: _296  and  _298
REMARK  123  A    between atoms: _298  and  _299
REMARK  124  A    between atoms: _298  and  _301
REMARK  125  A    between atoms: _301  and  _302
REMARK  126  A    between atoms: _305  and  _307
REMARK  127  A    between atoms: _307  and  _308
REMARK  128  A    between atoms: _307  and  _310
REMARK  129  A    between atoms: _310  and  _311
REMARK  130  A    between atoms: _314  and  _316
REMARK  131  A    between atoms: _316  and  _317
REMARK  132  A    between atoms: _316  and  _319
REMARK  133  A    between atoms: _319  and  _320
REMARK  134  A    between atoms: _325  and  _326
REMARK  135  A    between atoms: _328  and  _330
REMARK  136  A    between atoms: _330  and  _331
REMARK  137  A    between atoms: _330  and  _333
REMARK  138  A    between atoms: _336  and  _338
REMARK  139  A    between atoms: _338  and  _339
REMARK  140  A    between atoms: _342  and  _344
REMARK  141  A    between atoms: _344  and  _345
REMARK  142  A    between atoms: _344  and  _347
REMARK  143  A    between atoms: _347  and  _348
REMARK  144  A    between atoms: _348  and  _349
REMARK  145  A    between atoms: _349  and  _350
REMARK  146  A    between atoms: _359  and  _361
REMARK  147  A    between atoms: _361  and  _362
REMARK  148  A    between atoms: _361  and  _364
REMARK  149  A    between atoms: _364  and  _365
REMARK  150  A    between atoms: _365  and  _366
REMARK  151  A    between atoms: _366  and  _367
REMARK  152  A    between atoms: _376  and  _378
REMARK  153  A    between atoms: _378  and  _379
REMARK  154  A    between atoms: _378  and  _381
REMARK  155  A    between atoms: _381  and  _382
REMARK  156  A    between atoms: _385  and  _387
REMARK  157  A    between atoms: _387  and  _388
REMARK  158  A    between atoms: _390  and  _392
REMARK  159  A    between atoms: _392  and  _393
REMARK  160  A    between atoms: _392  and  _395
REMARK  161  A    between atoms: _395  and  _396
REMARK  162  A    between atoms: _396  and  _397
REMARK  163  A    between atoms: _400  and  _402
REMARK  164  A    between atoms: _402  and  _403
REMARK  165  A    between atoms: _402  and  _405
REMARK  166  A    between atoms: _405  and  _406
REMARK  167  A    between atoms: _408  and  _410
REMARK  168  A    between atoms: _410  and  _411
REMARK  169  A    between atoms: _410  and  _413
REMARK  170  A    between atoms: _413  and  _414
REMARK  171  A    between atoms: _417  and  _419
REMARK  172  A    between atoms: _419  and  _420
REMARK  173  A    between atoms: _419  and  _422
REMARK  174  A    between atoms: _422  and  _423
REMARK  175  A    between atoms: _423  and  _424
REMARK  176  A    between atoms: _429  and  _431
REMARK  177  A    between atoms: _431  and  _432
REMARK  178  A    between atoms: _431  and  _434
REMARK  179  A    between atoms: _434  and  _435
REMARK  180  A    between atoms: _438  and  _440
REMARK  181  A    between atoms: _440  and  _441
REMARK  182  A    between atoms: _440  and  _443
REMARK  183  A    between atoms: _443  and  _444
REMARK  184  A    between atoms: _449  and  _451
REMARK  185  A    between atoms: _451  and  _452
REMARK  186  A    between atoms: _451  and  _454
REMARK  187  A    between atoms: _457  and  _459
REMARK  188  A    between atoms: _459  and  _460
REMARK  189  A    between atoms: _459  and  _462
REMARK  190  A    between atoms: _462  and  _463
REMARK  191  A    between atoms: _466  and  _468
REMARK  192  A    between atoms: _468  and  _469
REMARK  193  A    between atoms: _468  and  _471
REMARK  194  A    between atoms: _474  and  _476
REMARK  195  A    between atoms: _476  and  _477
REMARK  196  A    between atoms: _476  and  _479
REMARK  197  A    between atoms: _479  and  _480
REMARK  198  A    between atoms: _486  and  _488
REMARK  199  A    between atoms: _488  and  _489
REMARK  200  A    between atoms: _492  and  _494
REMARK  201  A    between atoms: _494  and  _495
REMARK  202  A    between atoms: _494  and  _497
REMARK  203  A    between atoms: _497  and  _498
REMARK  204  A    between atoms: _501  and  _503
REMARK  205  A    between atoms: _503  and  _504
REMARK  206  A    between atoms: _503  and  _506
REMARK  207  A    between atoms: _506  and  _507
REMARK  208  A    between atoms: _510  and  _512
REMARK  209  A    between atoms: _512  and  _513
REMARK  210  A    between atoms: _512  and  _515
REMARK  211  A    between atoms: _515  and  _516
REMARK  212  A    between atoms: _516  and  _517
REMARK  213  A    between atoms: _520  and  _522
REMARK  214  A    between atoms: _522  and  _523
REMARK  215  A    between atoms: _526  and  _528
REMARK  216  A    between atoms: _528  and  _529
REMARK  217  A    between atoms: _532  and  _534
REMARK  218  A    between atoms: _534  and  _535
REMARK  219  A    between atoms: _534  and  _537
REMARK  220  A    between atoms: _537  and  _538
REMARK  221  A    between atoms: _543  and  _544
REMARK                            x       y       z     vdW  Elec       q    Type
REMARK                         _______ _______ _______ _____ _____    ______ ____
ROOT
ATOM      1  O   HOH     1      49.238   9.441  52.108  0.00  0.00    +0.000 OA
ENDROOT
TORSDOF 0
REMARK  Name = ../refined-set-2016/3acx/3acx_pocket.pdb
REMARK  221 active torsions:
REMARK  status: ('A' for Active; 'I' for Inactive)
REMARK    1  A    between atoms: _1  and  _3
REMARK    2  A    between atoms: _3  and  _4
REMARK    3  A    between atoms: _3  and  _6
REMARK    4  A    between atoms: _6  and  _7
REMARK    5  A    between atoms: _10  and  _12
REMARK    6  A    between atoms: _12  and  _13
REMARK    7  A    between atoms: _12  and  _15
REMARK    8  A    between atoms: _15  and  _16
REMARK    9  A    between atoms: _16  and  _17
REMARK   10  A    between atoms: _19  and  _21
REMARK   11  A    between atoms: _21  and  _22
REMARK   12  A    between atoms: _21  and  _24
REMARK   13  A    between atoms: _24  and  _25
REMARK   14  A    between atoms: _30  and  _32
REMARK   15  A    between atoms: _32  and  _33
REMARK   16  A    between atoms: _32  and  _35
REMARK   17  A    between atoms: _35  and  _36
REMARK   18  A    between atoms: _38  and  _40
REMARK   19  A    between atoms: _40  and  _41
REMARK   20  A    between atoms: _40  and  _43
REMARK   21  A    between atoms: _43  and  _44
REMARK   22  A    between atoms: _46  and  _48
REMARK   23  A    between atoms: _48  and  _49
REMARK   24  A    between atoms: _48  and  _51
REMARK   25  A    between atoms: _51  and  _52
REMARK   26  A    between atoms: _58  and  _60
REMARK   27  A    between atoms: _60  and  _61
REMARK   28  A    between atoms: _60  and  _63
REMARK   29  A    between atoms: _63  and  _64
REMARK   30  A    between atoms: _66  and  _68
REMARK   31  A    between atoms: _68  and  _69
REMARK   32  A    between atoms: _68  and  _71
REMARK   33  A    between atoms: _71  and  _72
REMARK   34  A    between atoms: _78  and  _80
REMARK   35  A    between atoms: _80  and  _81
REMARK   36  A    between atoms: _80  and  _83
REMARK   37  A    between atoms: _86  and  _88
REMARK   38  A    between atoms: _88  and  _89
REMARK   39  A    between atoms: _88  and  _91
REMARK   40  A    between atoms: _91  and  _92
REMARK   41  A    between atoms: _102  and  _104
REMARK   42  A    between atoms: _104  and  _105
REMARK   43  A    between atoms: _104  and  _107
REMARK   44  A    between atoms: _107  and  _108
REMARK   45  A    between atoms: _111  and  _113
REMARK   46  A    between atoms: _113  and  _114
REMARK   47  A    between atoms: _113  and  _116
REMARK   48  A    between atoms: _116  and  _117
REMARK   49  A    between atoms: _122  and  _123
REMARK   50  A    between atoms: _125  and  _127
REMARK   51  A    between atoms: _127  and  _128
REMARK   52  A    between atoms: _131  and  _133
REMARK   53  A    between atoms: _133  and  _134
REMARK   54  A    between atoms: _133  and  _136
REMARK   55  A    between atoms: _139  and  _141
REMARK   56  A    between atoms: _141  and  _142
REMARK   57  A    between atoms: _141  and  _144
REMARK   58  A    between atoms: _146  and  _148
REMARK   59  A    between atoms: _148  and  _149
REMARK   60  A    between atoms: _148  and  _151
REMARK   61  A    between atoms: _151  and  _152
REMARK   62  A    between atoms: _152  and  _153
REMARK   63  A    between atoms: _153  and  _154
REMARK   64  A    between atoms: _163  and  _165
REMARK   65  A    between atoms: _165  and  _166
REMARK   66  A    between atoms: _165  and  _168
REMARK   67  A    between atoms: _168  and  _169
REMARK   68  A    between atoms: _169  and  _170
REMARK   69  A    between atoms: _170  and  _171
REMARK   70  A    between atoms: _171  and  _172
REMARK   71  A    between atoms: _176  and  _178
REMARK   72  A    between atoms: _178  and  _179
REMARK   73  A    between atoms: _178  and  _181
REMARK   74  A    between atoms: _181  and  _182
REMARK   75  A    between atoms: _185  and  _187
REMARK   76  A    between atoms: _187  and  _188
REMARK   77  A    between atoms: _187  and  _190
REMARK   78  A    between atoms: _190  and  _191
REMARK   79  A    between atoms: _194  and  _196
REMARK   80  A    between atoms: _196  and  _197
REMARK   81  A    between atoms: _196  and  _199
REMARK   82  A    between atoms: _199  and  _200
REMARK   83  A    between atoms: _203  and  _205
REMARK   84  A    between atoms: _205  and  _206
REMARK   85  A    between atoms: _205  and  _208
REMARK   86  A    between atoms: _208  and  _209
REMARK   87  A    between atoms: _212  and  _214
REMARK   88  A    between atoms: _214  and  _215
REMARK   89  A    between atoms: _214  and  _217
REMARK   90  A    between atoms: _219  and  _221
REMARK   91  A    between atoms: _221  and  _222
REMARK   92  A    between atoms: _221  and  _224
REMARK   93  A    between atoms: _227  and  _229
REMARK   94  A    between atoms: _229  and  _230
REMARK   95  A    between atoms: _233  and  _235
REMARK   96  A    between atoms: _235  and  _236
REMARK   97  A    between atoms: _238  and  _240
REMARK   98  A    between atoms: _240  and  _241
REMARK   99  A    between atoms: _240  and  _243
REMARK  100  A    between atoms: _243  and  _244
REMARK  101  A    between atoms: _247  and  _249
REMARK  102  A    between atoms: _249  and  _250
REMARK  103  A    between atoms: _249  and  _252
REMARK  104  A    between atoms: _255  and  _257
REMARK  105  A    between atoms: _257  and  _258
REMARK  106  A    between atoms: _260  and  _262
REMARK  107  A    between atoms: _262  and  _263
REMARK  108  A    between atoms: _262  and  _265
REMARK  109  A    between atoms: _265  and  _266
REMARK  110  A    between atoms: _266  and  _267
REMARK  111  A    between atoms: _270  and  _272
REMARK  112  A    between atoms: _272  and  _273
REMARK  113  A    between atoms: _272  and  _275
REMARK  114  A    between atoms: _278  and  _280
REMARK  115  A    between atoms: _280  and  _281
REMARK  116  A    between atoms: _280  and  _283
REMARK  117  A    between atoms: _283  and  _284
REMARK  118  A    between atoms: _287  and  _289
REMARK  119  A    between atoms: _289  and  _290
REMARK  120  A    between atoms: _289  and  _292
REMARK  121  A    between atoms: _292  and  _293
REMARK  122  A    between atoms: _296  and  _298
REMARK  123  A    between atoms: _298  and  _299
REMARK  124  A    between atoms: _298  and  _301
REMARK  125  A    between atoms: _301  and  _302
REMARK  126  A    between atoms: _305  and  _307
REMARK  127  A    between atoms: _307  and  _308
REMARK  128  A    between atoms: _307  and  _310
REMARK  129  A    between atoms: _310  and  _311
REMARK  130  A    between atoms: _314  and  _316
REMARK  131  A    between atoms: _316  and  _317
REMARK  132  A    between atoms: _316  and  _319
REMARK  133  A    between atoms: _319  and  _320
REMARK  134  A    between atoms: _325  and  _326
REMARK  135  A    between atoms: _328  and  _330
REMARK  136  A    between atoms: _330  and  _331
REMARK  137  A    between atoms: _330  and  _333
REMARK  138  A    between atoms: _336  and  _338
REMARK  139  A    between atoms: _338  and  _339
REMARK  140  A    between atoms: _342  and  _344
REMARK  141  A    between atoms: _344  and  _345
REMARK  142  A    between atoms: _344  and  _347
REMARK  143  A    between atoms: _347  and  _348
REMARK  144  A    between atoms: _348  and  _349
REMARK  145  A    between atoms: _349  and  _350
REMARK  146  A    between atoms: _359  and  _361
REMARK  147  A    between atoms: _361  and  _362
REMARK  148  A    between atoms: _361  and  _364
REMARK  149  A    between atoms: _364  and  _365
REMARK  150  A    between atoms: _365  and  _366
REMARK  151  A    between atoms: _366  and  _367
REMARK  152  A    between atoms: _376  and  _378
REMARK  153  A    between atoms: _378  and  _379
REMARK  154  A    between atoms: _378  and  _381
REMARK  155  A    between atoms: _381  and  _382
REMARK  156  A    between atoms: _385  and  _387
REMARK  157  A    between atoms: _387  and  _388
REMARK  158  A    between atoms: _390  and  _392
REMARK  159  A    between atoms: _392  and  _393
REMARK  160  A    between atoms: _392  and  _395
REMARK  161  A    between atoms: _395  and  _396
REMARK  162  A    between atoms: _396  and  _397
REMARK  163  A    between atoms: _400  and  _402
REMARK  164  A    between atoms: _402  and  _403
REMARK  165  A    between atoms: _402  and  _405
REMARK  166  A    between atoms: _405  and  _406
REMARK  167  A    between atoms: _408  and  _410
REMARK  168  A    between atoms: _410  and  _411
REMARK  169  A    between atoms: _410  and  _413
REMARK  170  A    between atoms: _413  and  _414
REMARK  171  A    between atoms: _417  and  _419
REMARK  172  A    between atoms: _419  and  _420
REMARK  173  A    between atoms: _419  and  _422
REMARK  174  A    between atoms: _422  and  _423
REMARK  175  A    between atoms: _423  and  _424
REMARK  176  A    between atoms: _429  and  _431
REMARK  177  A    between atoms: _431  and  _432
REMARK  178  A    between atoms: _431  and  _434
REMARK  179  A    between atoms: _434  and  _435
REMARK  180  A    between atoms: _438  and  _440
REMARK  181  A    between atoms: _440  and  _441
REMARK  182  A    between atoms: _440  and  _443
REMARK  183  A    between atoms: _443  and  _444
REMARK  184  A    between atoms: _449  and  _451
REMARK  185  A    between atoms: _451  and  _452
REMARK  186  A    between atoms: _451  and  _454
REMARK  187  A    between atoms: _457  and  _459
REMARK  188  A    between atoms: _459  and  _460
REMARK  189  A    between atoms: _459  and  _462
REMARK  190  A    between atoms: _462  and  _463
REMARK  191  A    between atoms: _466  and  _468
REMARK  192  A    between atoms: _468  and  _469
REMARK  193  A    between atoms: _468  and  _471
REMARK  194  A    between atoms: _474  and  _476
REMARK  195  A    between atoms: _476  and  _477
REMARK  196  A    between atoms: _476  and  _479
REMARK  197  A    between atoms: _479  and  _480
REMARK  198  A    between atoms: _486  and  _488
REMARK  199  A    between atoms: _488  and  _489
REMARK  200  A    between atoms: _492  and  _494
REMARK  201  A    between atoms: _494  and  _495
REMARK  202  A    between atoms: _494  and  _497
REMARK  203  A    between atoms: _497  and  _498
REMARK  204  A    between atoms: _501  and  _503
REMARK  205  A    between atoms: _503  and  _504
REMARK  206  A    between atoms: _503  and  _506
REMARK  207  A    between atoms: _506  and  _507
REMARK  208  A    between atoms: _510  and  _512
REMARK  209  A    between atoms: _512  and  _513
REMARK  210  A    between atoms: _512  and  _515
REMARK  211  A    between atoms: _515  and  _516
REMARK  212  A    between atoms: _516  and  _517
REMARK  213  A    between atoms: _520  and  _522
REMARK  214  A    between atoms: _522  and  _523
REMARK  215  A    between atoms: _526  and  _528
REMARK  216  A    between atoms: _528  and  _529
REMARK  217  A    between atoms: _532  and  _534
REMARK  218  A    between atoms: _534  and  _535
REMARK  219  A    between atoms: _534  and  _537
REMARK  220  A    between atoms: _537  and  _538
REMARK  221  A    between atoms: _543  and  _544
REMARK                            x       y       z     vdW  Elec       q    Type
REMARK                         _______ _______ _______ _____ _____    ______ ____
ROOT
ATOM      1  O   HOH     1      57.313   9.781  55.018  0.00  0.00    +0.000 OA
ENDROOT
TORSDOF 0
REMARK  Name = ../refined-set-2016/3acx/3acx_pocket.pdb
REMARK  221 active torsions:
REMARK  status: ('A' for Active; 'I' for Inactive)
REMARK    1  A    between atoms: _1  and  _3
REMARK    2  A    between atoms: _3  and  _4
REMARK    3  A    between atoms: _3  and  _6
REMARK    4  A    between atoms: _6  and  _7
REMARK    5  A    between atoms: _10  and  _12
REMARK    6  A    between atoms: _12  and  _13
REMARK    7  A    between atoms: _12  and  _15
REMARK    8  A    between atoms: _15  and  _16
REMARK    9  A    between atoms: _16  and  _17
REMARK   10  A    between atoms: _19  and  _21
REMARK   11  A    between atoms: _21  and  _22
REMARK   12  A    between atoms: _21  and  _24
REMARK   13  A    between atoms: _24  and  _25
REMARK   14  A    between atoms: _30  and  _32
REMARK   15  A    between atoms: _32  and  _33
REMARK   16  A    between atoms: _32  and  _35
REMARK   17  A    between atoms: _35  and  _36
REMARK   18  A    between atoms: _38  and  _40
REMARK   19  A    between atoms: _40  and  _41
REMARK   20  A    between atoms: _40  and  _43
REMARK   21  A    between atoms: _43  and  _44
REMARK   22  A    between atoms: _46  and  _48
REMARK   23  A    between atoms: _48  and  _49
REMARK   24  A    between atoms: _48  and  _51
REMARK   25  A    between atoms: _51  and  _52
REMARK   26  A    between atoms: _58  and  _60
REMARK   27  A    between atoms: _60  and  _61
REMARK   28  A    between atoms: _60  and  _63
REMARK   29  A    between atoms: _63  and  _64
REMARK   30  A    between atoms: _66  and  _68
REMARK   31  A    between atoms: _68  and  _69
REMARK   32  A    between atoms: _68  and  _71
REMARK   33  A    between atoms: _71  and  _72
REMARK   34  A    between atoms: _78  and  _80
REMARK   35  A    between atoms: _80  and  _81
REMARK   36  A    between atoms: _80  and  _83
REMARK   37  A    between atoms: _86  and  _88
REMARK   38  A    between atoms: _88  and  _89
REMARK   39  A    between atoms: _88  and  _91
REMARK   40  A    between atoms: _91  and  _92
REMARK   41  A    between atoms: _102  and  _104
REMARK   42  A    between atoms: _104  and  _105
REMARK   43  A    between atoms: _104  and  _107
REMARK   44  A    between atoms: _107  and  _108
REMARK   45  A    between atoms: _111  and  _113
REMARK   46  A    between atoms: _113  and  _114
REMARK   47  A    between atoms: _113  and  _116
REMARK   48  A    between atoms: _116  and  _117
REMARK   49  A    between atoms: _122  and  _123
REMARK   50  A    between atoms: _125  and  _127
REMARK   51  A    between atoms: _127  and  _128
REMARK   52  A    between atoms: _131  and  _133
REMARK   53  A    between atoms: _133  and  _134
REMARK   54  A    between atoms: _133  and  _136
REMARK   55  A    between atoms: _139  and  _141
REMARK   56  A    between atoms: _141  and  _142
REMARK   57  A    between atoms: _141  and  _144
REMARK   58  A    between atoms: _146  and  _148
REMARK   59  A    between atoms: _148  and  _149
REMARK   60  A    between atoms: _148  and  _151
REMARK   61  A    between atoms: _151  and  _152
REMARK   62  A    between atoms: _152  and  _153
REMARK   63  A    between atoms: _153  and  _154
REMARK   64  A    between atoms: _163  and  _165
REMARK   65  A    between atoms: _165  and  _166
REMARK   66  A    between atoms: _165  and  _168
REMARK   67  A    between atoms: _168  and  _169
REMARK   68  A    between atoms: _169  and  _170
REMARK   69  A    between atoms: _170  and  _171
REMARK   70  A    between atoms: _171  and  _172
REMARK   71  A    between atoms: _176  and  _178
REMARK   72  A    between atoms: _178  and  _179
REMARK   73  A    between atoms: _178  and  _181
REMARK   74  A    between atoms: _181  and  _182
REMARK   75  A    between atoms: _185  and  _187
REMARK   76  A    between atoms: _187  and  _188
REMARK   77  A    between atoms: _187  and  _190
REMARK   78  A    between atoms: _190  and  _191
REMARK   79  A    between atoms: _194  and  _196
REMARK   80  A    between atoms: _196  and  _197
REMARK   81  A    between atoms: _196  and  _199
REMARK   82  A    between atoms: _199  and  _200
REMARK   83  A    between atoms: _203  and  _205
REMARK   84  A    between atoms: _205  and  _206
REMARK   85  A    between atoms: _205  and  _208
REMARK   86  A    between atoms: _208  and  _209
REMARK   87  A    between atoms: _212  and  _214
REMARK   88  A    between atoms: _214  and  _215
REMARK   89  A    between atoms: _214  and  _217
REMARK   90  A    between atoms: _219  and  _221
REMARK   91  A    between atoms: _221  and  _222
REMARK   92  A    between atoms: _221  and  _224
REMARK   93  A    between atoms: _227  and  _229
REMARK   94  A    between atoms: _229  and  _230
REMARK   95  A    between atoms: _233  and  _235
REMARK   96  A    between atoms: _235  and  _236
REMARK   97  A    between atoms: _238  and  _240
REMARK   98  A    between atoms: _240  and  _241
REMARK   99  A    between atoms: _240  and  _243
REMARK  100  A    between atoms: _243  and  _244
REMARK  101  A    between atoms: _247  and  _249
REMARK  102  A    between atoms: _249  and  _250
REMARK  103  A    between atoms: _249  and  _252
REMARK  104  A    between atoms: _255  and  _257
REMARK  105  A    between atoms: _257  and  _258
REMARK  106  A    between atoms: _260  and  _262
REMARK  107  A    between atoms: _262  and  _263
REMARK  108  A    between atoms: _262  and  _265
REMARK  109  A    between atoms: _265  and  _266
REMARK  110  A    between atoms: _266  and  _267
REMARK  111  A    between atoms: _270  and  _272
REMARK  112  A    between atoms: _272  and  _273
REMARK  113  A    between atoms: _272  and  _275
REMARK  114  A    between atoms: _278  and  _280
REMARK  115  A    between atoms: _280  and  _281
REMARK  116  A    between atoms: _280  and  _283
REMARK  117  A    between atoms: _283  and  _284
REMARK  118  A    between atoms: _287  and  _289
REMARK  119  A    between atoms: _289  and  _290
REMARK  120  A    between atoms: _289  and  _292
REMARK  121  A    between atoms: _292  and  _293
REMARK  122  A    between atoms: _296  and  _298
REMARK  123  A    between atoms: _298  and  _299
REMARK  124  A    between atoms: _298  and  _301
REMARK  125  A    between atoms: _301  and  _302
REMARK  126  A    between atoms: _305  and  _307
REMARK  127  A    between atoms: _307  and  _308
REMARK  128  A    between atoms: _307  and  _310
REMARK  129  A    between atoms: _310  and  _311
REMARK  130  A    between atoms: _314  and  _316
REMARK  131  A    between atoms: _316  and  _317
REMARK  132  A    between atoms: _316  and  _319
REMARK  133  A    between atoms: _319  and  _320
REMARK  134  A    between atoms: _325  and  _326
REMARK  135  A    between atoms: _328  and  _330
REMARK  136  A    between atoms: _330  and  _331
REMARK  137  A    between atoms: _330  and  _333
REMARK  138  A    between atoms: _336  and  _338
REMARK  139  A    between atoms: _338  and  _339
REMARK  140  A    between atoms: _342  and  _344
REMARK  141  A    between atoms: _344  and  _345
REMARK  142  A    between atoms: _344  and  _347
REMARK  143  A    between atoms: _347  and  _348
REMARK  144  A    between atoms: _348  and  _349
REMARK  145  A    between atoms: _349  and  _350
REMARK  146  A    between atoms: _359  and  _361
REMARK  147  A    between atoms: _361  and  _362
REMARK  148  A    between atoms: _361  and  _364
REMARK  149  A    between atoms: _364  and  _365
REMARK  150  A    between atoms: _365  and  _366
REMARK  151  A    between atoms: _366  and  _367
REMARK  152  A    between atoms: _376  and  _378
REMARK  153  A    between atoms: _378  and  _379
REMARK  154  A    between atoms: _378  and  _381
REMARK  155  A    between atoms: _381  and  _382
REMARK  156  A    between atoms: _385  and  _387
REMARK  157  A    between atoms: _387  and  _388
REMARK  158  A    between atoms: _390  and  _392
REMARK  159  A    between atoms: _392  and  _393
REMARK  160  A    between atoms: _392  and  _395
REMARK  161  A    between atoms: _395  and  _396
REMARK  162  A    between atoms: _396  and  _397
REMARK  163  A    between atoms: _400  and  _402
REMARK  164  A    between atoms: _402  and  _403
REMARK  165  A    between atoms: _402  and  _405
REMARK  166  A    between atoms: _405  and  _406
REMARK  167  A    between atoms: _408  and  _410
REMARK  168  A    between atoms: _410  and  _411
REMARK  169  A    between atoms: _410  and  _413
REMARK  170  A    between atoms: _413  and  _414
REMARK  171  A    between atoms: _417  and  _419
REMARK  172  A    between atoms: _419  and  _420
REMARK  173  A    between atoms: _419  and  _422
REMARK  174  A    between atoms: _422  and  _423
REMARK  175  A    between atoms: _423  and  _424
REMARK  176  A    between atoms: _429  and  _431
REMARK  177  A    between atoms: _431  and  _432
REMARK  178  A    between atoms: _431  and  _434
REMARK  179  A    between atoms: _434  and  _435
REMARK  180  A    between atoms: _438  and  _440
REMARK  181  A    between atoms: _440  and  _441
REMARK  182  A    between atoms: _440  and  _443
REMARK  183  A    between atoms: _443  and  _444
REMARK  184  A    between atoms: _449  and  _451
REMARK  185  A    between atoms: _451  and  _452
REMARK  186  A    between atoms: _451  and  _454
REMARK  187  A    between atoms: _457  and  _459
REMARK  188  A    between atoms: _459  and  _460
REMARK  189  A    between atoms: _459  and  _462
REMARK  190  A    between atoms: _462  and  _463
REMARK  191  A    between atoms: _466  and  _468
REMARK  192  A    between atoms: _468  and  _469
REMARK  193  A    between atoms: _468  and  _471
REMARK  194  A    between atoms: _474  and  _476
REMARK  195  A    between atoms: _476  and  _477
REMARK  196  A    between atoms: _476  and  _479
REMARK  197  A    between atoms: _479  and  _480
REMARK  198  A    between atoms: _486  and  _488
REMARK  199  A    between atoms: _488  and  _489
REMARK  200  A    between atoms: _492  and  _494
REMARK  201  A    between atoms: _494  and  _495
REMARK  202  A    between atoms: _494  and  _497
REMARK  203  A    between atoms: _497  and  _498
REMARK  204  A    between atoms: _501  and  _503
REMARK  205  A    between atoms: _503  and  _504
REMARK  206  A    between atoms: _503  and  _506
REMARK  207  A    between atoms: _506  and  _507
REMARK  208  A    between atoms: _510  and  _512
REMARK  209  A    between atoms: _512  and  _513
REMARK  210  A    between atoms: _512  and  _515
REMARK  211  A    between atoms: _515  and  _516
REMARK  212  A    between atoms: _516  and  _517
REMARK  213  A    between atoms: _520  and  _522
REMARK  214  A    between atoms: _522  and  _523
REMARK  215  A    between atoms: _526  and  _528
REMARK  216  A    between atoms: _528  and  _529
REMARK  217  A    between atoms: _532  and  _534
REMARK  218  A    between atoms: _534  and  _535
REMARK  219  A    between atoms: _534  and  _537
REMARK  220  A    between atoms: _537  and  _538
REMARK  221  A    between atoms: _543  and  _544
REMARK                            x       y       z     vdW  Elec       q    Type
REMARK                         _______ _______ _______ _____ _____    ______ ____
ROOT
ATOM      1  O   HOH     1      55.985   8.967  52.818  0.00  0.00    +0.000 OA
ENDROOT
TORSDOF 0
REMARK  Name = ../refined-set-2016/3acx/3acx_pocket.pdb
REMARK  221 active torsions:
REMARK  status: ('A' for Active; 'I' for Inactive)
REMARK    1  A    between atoms: _1  and  _3
REMARK    2  A    between atoms: _3  and  _4
REMARK    3  A    between atoms: _3  and  _6
REMARK    4  A    between atoms: _6  and  _7
REMARK    5  A    between atoms: _10  and  _12
REMARK    6  A    between atoms: _12  and  _13
REMARK    7  A    between atoms: _12  and  _15
REMARK    8  A    between atoms: _15  and  _16
REMARK    9  A    between atoms: _16  and  _17
REMARK   10  A    between atoms: _19  and  _21
REMARK   11  A    between atoms: _21  and  _22
REMARK   12  A    between atoms: _21  and  _24
REMARK   13  A    between atoms: _24  and  _25
REMARK   14  A    between atoms: _30  and  _32
REMARK   15  A    between atoms: _32  and  _33
REMARK   16  A    between atoms: _32  and  _35
REMARK   17  A    between atoms: _35  and  _36
REMARK   18  A    between atoms: _38  and  _40
REMARK   19  A    between atoms: _40  and  _41
REMARK   20  A    between atoms: _40  and  _43
REMARK   21  A    between atoms: _43  and  _44
REMARK   22  A    between atoms: _46  and  _48
REMARK   23  A    between atoms: _48  and  _49
REMARK   24  A    between atoms: _48  and  _51
REMARK   25  A    between atoms: _51  and  _52
REMARK   26  A    between atoms: _58  and  _60
REMARK   27  A    between atoms: _60  and  _61
REMARK   28  A    between atoms: _60  and  _63
REMARK   29  A    between atoms: _63  and  _64
REMARK   30  A    between atoms: _66  and  _68
REMARK   31  A    between atoms: _68  and  _69
REMARK   32  A    between atoms: _68  and  _71
REMARK   33  A    between atoms: _71  and  _72
REMARK   34  A    between atoms: _78  and  _80
REMARK   35  A    between atoms: _80  and  _81
REMARK   36  A    between atoms: _80  and  _83
REMARK   37  A    between atoms: _86  and  _88
REMARK   38  A    between atoms: _88  and  _89
REMARK   39  A    between atoms: _88  and  _91
REMARK   40  A    between atoms: _91  and  _92
REMARK   41  A    between atoms: _102  and  _104
REMARK   42  A    between atoms: _104  and  _105
REMARK   43  A    between atoms: _104  and  _107
REMARK   44  A    between atoms: _107  and  _108
REMARK   45  A    between atoms: _111  and  _113
REMARK   46  A    between atoms: _113  and  _114
REMARK   47  A    between atoms: _113  and  _116
REMARK   48  A    between atoms: _116  and  _117
REMARK   49  A    between atoms: _122  and  _123
REMARK   50  A    between atoms: _125  and  _127
REMARK   51  A    between atoms: _127  and  _128
REMARK   52  A    between atoms: _131  and  _133
REMARK   53  A    between atoms: _133  and  _134
REMARK   54  A    between atoms: _133  and  _136
REMARK   55  A    between atoms: _139  and  _141
REMARK   56  A    between atoms: _141  and  _142
REMARK   57  A    between atoms: _141  and  _144
REMARK   58  A    between atoms: _146  and  _148
REMARK   59  A    between atoms: _148  and  _149
REMARK   60  A    between atoms: _148  and  _151
REMARK   61  A    between atoms: _151  and  _152
REMARK   62  A    between atoms: _152  and  _153
REMARK   63  A    between atoms: _153  and  _154
REMARK   64  A    between atoms: _163  and  _165
REMARK   65  A    between atoms: _165  and  _166
REMARK   66  A    between atoms: _165  and  _168
REMARK   67  A    between atoms: _168  and  _169
REMARK   68  A    between atoms: _169  and  _170
REMARK   69  A    between atoms: _170  and  _171
REMARK   70  A    between atoms: _171  and  _172
REMARK   71  A    between atoms: _176  and  _178
REMARK   72  A    between atoms: _178  and  _179
REMARK   73  A    between atoms: _178  and  _181
REMARK   74  A    between atoms: _181  and  _182
REMARK   75  A    between atoms: _185  and  _187
REMARK   76  A    between atoms: _187  and  _188
REMARK   77  A    between atoms: _187  and  _190
REMARK   78  A    between atoms: _190  and  _191
REMARK   79  A    between atoms: _194  and  _196
REMARK   80  A    between atoms: _196  and  _197
REMARK   81  A    between atoms: _196  and  _199
REMARK   82  A    between atoms: _199  and  _200
REMARK   83  A    between atoms: _203  and  _205
REMARK   84  A    between atoms: _205  and  _206
REMARK   85  A    between atoms: _205  and  _208
REMARK   86  A    between atoms: _208  and  _209
REMARK   87  A    between atoms: _212  and  _214
REMARK   88  A    between atoms: _214  and  _215
REMARK   89  A    between atoms: _214  and  _217
REMARK   90  A    between atoms: _219  and  _221
REMARK   91  A    between atoms: _221  and  _222
REMARK   92  A    between atoms: _221  and  _224
REMARK   93  A    between atoms: _227  and  _229
REMARK   94  A    between atoms: _229  and  _230
REMARK   95  A    between atoms: _233  and  _235
REMARK   96  A    between atoms: _235  and  _236
REMARK   97  A    between atoms: _238  and  _240
REMARK   98  A    between atoms: _240  and  _241
REMARK   99  A    between atoms: _240  and  _243
REMARK  100  A    between atoms: _243  and  _244
REMARK  101  A    between atoms: _247  and  _249
REMARK  102  A    between atoms: _249  and  _250
REMARK  103  A    between atoms: _249  and  _252
REMARK  104  A    between atoms: _255  and  _257
REMARK  105  A    between atoms: _257  and  _258
REMARK  106  A    between atoms: _260  and  _262
REMARK  107  A    between atoms: _262  and  _263
REMARK  108  A    between atoms: _262  and  _265
REMARK  109  A    between atoms: _265  and  _266
REMARK  110  A    between atoms: _266  and  _267
REMARK  111  A    between atoms: _270  and  _272
REMARK  112  A    between atoms: _272  and  _273
REMARK  113  A    between atoms: _272  and  _275
REMARK  114  A    between atoms: _278  and  _280
REMARK  115  A    between atoms: _280  and  _281
REMARK  116  A    between atoms: _280  and  _283
REMARK  117  A    between atoms: _283  and  _284
REMARK  118  A    between atoms: _287  and  _289
REMARK  119  A    between atoms: _289  and  _290
REMARK  120  A    between atoms: _289  and  _292
REMARK  121  A    between atoms: _292  and  _293
REMARK  122  A    between atoms: _296  and  _298
REMARK  123  A    between atoms: _298  and  _299
REMARK  124  A    between atoms: _298  and  _301
REMARK  125  A    between atoms: _301  and  _302
REMARK  126  A    between atoms: _305  and  _307
REMARK  127  A    between atoms: _307  and  _308
REMARK  128  A    between atoms: _307  and  _310
REMARK  129  A    between atoms: _310  and  _311
REMARK  130  A    between atoms: _314  and  _316
REMARK  131  A    between atoms: _316  and  _317
REMARK  132  A    between atoms: _316  and  _319
REMARK  133  A    between atoms: _319  and  _320
REMARK  134  A    between atoms: _325  and  _326
REMARK  135  A    between atoms: _328  and  _330
REMARK  136  A    between atoms: _330  and  _331
REMARK  137  A    between atoms: _330  and  _333
REMARK  138  A    between atoms: _336  and  _338
REMARK  139  A    between atoms: _338  and  _339
REMARK  140  A    between atoms: _342  and  _344
REMARK  141  A    between atoms: _344  and  _345
REMARK  142  A    between atoms: _344  and  _347
REMARK  143  A    between atoms: _347  and  _348
REMARK  144  A    between atoms: _348  and  _349
REMARK  145  A    between atoms: _349  and  _350
REMARK  146  A    between atoms: _359  and  _361
REMARK  147  A    between atoms: _361  and  _362
REMARK  148  A    between atoms: _361  and  _364
REMARK  149  A    between atoms: _364  and  _365
REMARK  150  A    between atoms: _365  and  _366
REMARK  151  A    between atoms: _366  and  _367
REMARK  152  A    between atoms: _376  and  _378
REMARK  153  A    between atoms: _378  and  _379
REMARK  154  A    between atoms: _378  and  _381
REMARK  155  A    between atoms: _381  and  _382
REMARK  156  A    between atoms: _385  and  _387
REMARK  157  A    between atoms: _387  and  _388
REMARK  158  A    between atoms: _390  and  _392
REMARK  159  A    between atoms: _392  and  _393
REMARK  160  A    between atoms: _392  and  _395
REMARK  161  A    between atoms: _395  and  _396
REMARK  162  A    between atoms: _396  and  _397
REMARK  163  A    between atoms: _400  and  _402
REMARK  164  A    between atoms: _402  and  _403
REMARK  165  A    between atoms: _402  and  _405
REMARK  166  A    between atoms: _405  and  _406
REMARK  167  A    between atoms: _408  and  _410
REMARK  168  A    between atoms: _410  and  _411
REMARK  169  A    between atoms: _410  and  _413
REMARK  170  A    between atoms: _413  and  _414
REMARK  171  A    between atoms: _417  and  _419
REMARK  172  A    between atoms: _419  and  _420
REMARK  173  A    between atoms: _419  and  _422
REMARK  174  A    between atoms: _422  and  _423
REMARK  175  A    between atoms: _423  and  _424
REMARK  176  A    between atoms: _429  and  _431
REMARK  177  A    between atoms: _431  and  _432
REMARK  178  A    between atoms: _431  and  _434
REMARK  179  A    between atoms: _434  and  _435
REMARK  180  A    between atoms: _438  and  _440
REMARK  181  A    between atoms: _440  and  _441
REMARK  182  A    between atoms: _440  and  _443
REMARK  183  A    between atoms: _443  and  _444
REMARK  184  A    between atoms: _449  and  _451
REMARK  185  A    between atoms: _451  and  _452
REMARK  186  A    between atoms: _451  and  _454
REMARK  187  A    between atoms: _457  and  _459
REMARK  188  A    between atoms: _459  and  _460
REMARK  189  A    between atoms: _459  and  _462
REMARK  190  A    between atoms: _462  and  _463
REMARK  191  A    between atoms: _466  and  _468
REMARK  192  A    between atoms: _468  and  _469
REMARK  193  A    between atoms: _468  and  _471
REMARK  194  A    between atoms: _474  and  _476
REMARK  195  A    between atoms: _476  and  _477
REMARK  196  A    between atoms: _476  and  _479
REMARK  197  A    between atoms: _479  and  _480
REMARK  198  A    between atoms: _486  and  _488
REMARK  199  A    between atoms: _488  and  _489
REMARK  200  A    between atoms: _492  and  _494
REMARK  201  A    between atoms: _494  and  _495
REMARK  202  A    between atoms: _494  and  _497
REMARK  203  A    between atoms: _497  and  _498
REMARK  204  A    between atoms: _501  and  _503
REMARK  205  A    between atoms: _503  and  _504
REMARK  206  A    between atoms: _503  and  _506
REMARK  207  A    between atoms: _506  and  _507
REMARK  208  A    between atoms: _510  and  _512
REMARK  209  A    between atoms: _512  and  _513
REMARK  210  A    between atoms: _512  and  _515
REMARK  211  A    between atoms: _515  and  _516
REMARK  212  A    between atoms: _516  and  _517
REMARK  213  A    between atoms: _520  and  _522
REMARK  214  A    between atoms: _522  and  _523
REMARK  215  A    between atoms: _526  and  _528
REMARK  216  A    between atoms: _528  and  _529
REMARK  217  A    between atoms: _532  and  _534
REMARK  218  A    between atoms: _534  and  _535
REMARK  219  A    between atoms: _534  and  _537
REMARK  220  A    between atoms: _537  and  _538
REMARK  221  A    between atoms: _543  and  _544
REMARK                            x       y       z     vdW  Elec       q    Type
REMARK                         _______ _______ _______ _____ _____    ______ ____
ROOT
ATOM      1  O   HOH     1      55.767   6.552  52.500  0.00  0.00    +0.000 OA
ENDROOT
TORSDOF 0
REMARK  Name = ../refined-set-2016/3acx/3acx_pocket.pdb
REMARK  221 active torsions:
REMARK  status: ('A' for Active; 'I' for Inactive)
REMARK    1  A    between atoms: _1  and  _3
REMARK    2  A    between atoms: _3  and  _4
REMARK    3  A    between atoms: _3  and  _6
REMARK    4  A    between atoms: _6  and  _7
REMARK    5  A    between atoms: _10  and  _12
REMARK    6  A    between atoms: _12  and  _13
REMARK    7  A    between atoms: _12  and  _15
REMARK    8  A    between atoms: _15  and  _16
REMARK    9  A    between atoms: _16  and  _17
REMARK   10  A    between atoms: _19  and  _21
REMARK   11  A    between atoms: _21  and  _22
REMARK   12  A    between atoms: _21  and  _24
REMARK   13  A    between atoms: _24  and  _25
REMARK   14  A    between atoms: _30  and  _32
REMARK   15  A    between atoms: _32  and  _33
REMARK   16  A    between atoms: _32  and  _35
REMARK   17  A    between atoms: _35  and  _36
REMARK   18  A    between atoms: _38  and  _40
REMARK   19  A    between atoms: _40  and  _41
REMARK   20  A    between atoms: _40  and  _43
REMARK   21  A    between atoms: _43  and  _44
REMARK   22  A    between atoms: _46  and  _48
REMARK   23  A    between atoms: _48  and  _49
REMARK   24  A    between atoms: _48  and  _51
REMARK   25  A    between atoms: _51  and  _52
REMARK   26  A    between atoms: _58  and  _60
REMARK   27  A    between atoms: _60  and  _61
REMARK   28  A    between atoms: _60  and  _63
REMARK   29  A    between atoms: _63  and  _64
REMARK   30  A    between atoms: _66  and  _68
REMARK   31  A    between atoms: _68  and  _69
REMARK   32  A    between atoms: _68  and  _71
REMARK   33  A    between atoms: _71  and  _72
REMARK   34  A    between atoms: _78  and  _80
REMARK   35  A    between atoms: _80  and  _81
REMARK   36  A    between atoms: _80  and  _83
REMARK   37  A    between atoms: _86  and  _88
REMARK   38  A    between atoms: _88  and  _89
REMARK   39  A    between atoms: _88  and  _91
REMARK   40  A    between atoms: _91  and  _92
REMARK   41  A    between atoms: _102  and  _104
REMARK   42  A    between atoms: _104  and  _105
REMARK   43  A    between atoms: _104  and  _107
REMARK   44  A    between atoms: _107  and  _108
REMARK   45  A    between atoms: _111  and  _113
REMARK   46  A    between atoms: _113  and  _114
REMARK   47  A    between atoms: _113  and  _116
REMARK   48  A    between atoms: _116  and  _117
REMARK   49  A    between atoms: _122  and  _123
REMARK   50  A    between atoms: _125  and  _127
REMARK   51  A    between atoms: _127  and  _128
REMARK   52  A    between atoms: _131  and  _133
REMARK   53  A    between atoms: _133  and  _134
REMARK   54  A    between atoms: _133  and  _136
REMARK   55  A    between atoms: _139  and  _141
REMARK   56  A    between atoms: _141  and  _142
REMARK   57  A    between atoms: _141  and  _144
REMARK   58  A    between atoms: _146  and  _148
REMARK   59  A    between atoms: _148  and  _149
REMARK   60  A    between atoms: _148  and  _151
REMARK   61  A    between atoms: _151  and  _152
REMARK   62  A    between atoms: _152  and  _153
REMARK   63  A    between atoms: _153  and  _154
REMARK   64  A    between atoms: _163  and  _165
REMARK   65  A    between atoms: _165  and  _166
REMARK   66  A    between atoms: _165  and  _168
REMARK   67  A    between atoms: _168  and  _169
REMARK   68  A    between atoms: _169  and  _170
REMARK   69  A    between atoms: _170  and  _171
REMARK   70  A    between atoms: _171  and  _172
REMARK   71  A    between atoms: _176  and  _178
REMARK   72  A    between atoms: _178  and  _179
REMARK   73  A    between atoms: _178  and  _181
REMARK   74  A    between atoms: _181  and  _182
REMARK   75  A    between atoms: _185  and  _187
REMARK   76  A    between atoms: _187  and  _188
REMARK   77  A    between atoms: _187  and  _190
REMARK   78  A    between atoms: _190  and  _191
REMARK   79  A    between atoms: _194  and  _196
REMARK   80  A    between atoms: _196  and  _197
REMARK   81  A    between atoms: _196  and  _199
REMARK   82  A    between atoms: _199  and  _200
REMARK   83  A    between atoms: _203  and  _205
REMARK   84  A    between atoms: _205  and  _206
REMARK   85  A    between atoms: _205  and  _208
REMARK   86  A    between atoms: _208  and  _209
REMARK   87  A    between atoms: _212  and  _214
REMARK   88  A    between atoms: _214  and  _215
REMARK   89  A    between atoms: _214  and  _217
REMARK   90  A    between atoms: _219  and  _221
REMARK   91  A    between atoms: _221  and  _222
REMARK   92  A    between atoms: _221  and  _224
REMARK   93  A    between atoms: _227  and  _229
REMARK   94  A    between atoms: _229  and  _230
REMARK   95  A    between atoms: _233  and  _235
REMARK   96  A    between atoms: _235  and  _236
REMARK   97  A    between atoms: _238  and  _240
REMARK   98  A    between atoms: _240  and  _241
REMARK   99  A    between atoms: _240  and  _243
REMARK  100  A    between atoms: _243  and  _244
REMARK  101  A    between atoms: _247  and  _249
REMARK  102  A    between atoms: _249  and  _250
REMARK  103  A    between atoms: _249  and  _252
REMARK  104  A    between atoms: _255  and  _257
REMARK  105  A    between atoms: _257  and  _258
REMARK  106  A    between atoms: _260  and  _262
REMARK  107  A    between atoms: _262  and  _263
REMARK  108  A    between atoms: _262  and  _265
REMARK  109  A    between atoms: _265  and  _266
REMARK  110  A    between atoms: _266  and  _267
REMARK  111  A    between atoms: _270  and  _272
REMARK  112  A    between atoms: _272  and  _273
REMARK  113  A    between atoms: _272  and  _275
REMARK  114  A    between atoms: _278  and  _280
REMARK  115  A    between atoms: _280  and  _281
REMARK  116  A    between atoms: _280  and  _283
REMARK  117  A    between atoms: _283  and  _284
REMARK  118  A    between atoms: _287  and  _289
REMARK  119  A    between atoms: _289  and  _290
REMARK  120  A    between atoms: _289  and  _292
REMARK  121  A    between atoms: _292  and  _293
REMARK  122  A    between atoms: _296  and  _298
REMARK  123  A    between atoms: _298  and  _299
REMARK  124  A    between atoms: _298  and  _301
REMARK  125  A    between atoms: _301  and  _302
REMARK  126  A    between atoms: _305  and  _307
REMARK  127  A    between atoms: _307  and  _308
REMARK  128  A    between atoms: _307  and  _310
REMARK  129  A    between atoms: _310  and  _311
REMARK  130  A    between atoms: _314  and  _316
REMARK  131  A    between atoms: _316  and  _317
REMARK  132  A    between atoms: _316  and  _319
REMARK  133  A    between atoms: _319  and  _320
REMARK  134  A    between atoms: _325  and  _326
REMARK  135  A    between atoms: _328  and  _330
REMARK  136  A    between atoms: _330  and  _331
REMARK  137  A    between atoms: _330  and  _333
REMARK  138  A    between atoms: _336  and  _338
REMARK  139  A    between atoms: _338  and  _339
REMARK  140  A    between atoms: _342  and  _344
REMARK  141  A    between atoms: _344  and  _345
REMARK  142  A    between atoms: _344  and  _347
REMARK  143  A    between atoms: _347  and  _348
REMARK  144  A    between atoms: _348  and  _349
REMARK  145  A    between atoms: _349  and  _350
REMARK  146  A    between atoms: _359  and  _361
REMARK  147  A    between atoms: _361  and  _362
REMARK  148  A    between atoms: _361  and  _364
REMARK  149  A    between atoms: _364  and  _365
REMARK  150  A    between atoms: _365  and  _366
REMARK  151  A    between atoms: _366  and  _367
REMARK  152  A    between atoms: _376  and  _378
REMARK  153  A    between atoms: _378  and  _379
REMARK  154  A    between atoms: _378  and  _381
REMARK  155  A    between atoms: _381  and  _382
REMARK  156  A    between atoms: _385  and  _387
REMARK  157  A    between atoms: _387  and  _388
REMARK  158  A    between atoms: _390  and  _392
REMARK  159  A    between atoms: _392  and  _393
REMARK  160  A    between atoms: _392  and  _395
REMARK  161  A    between atoms: _395  and  _396
REMARK  162  A    between atoms: _396  and  _397
REMARK  163  A    between atoms: _400  and  _402
REMARK  164  A    between atoms: _402  and  _403
REMARK  165  A    between atoms: _402  and  _405
REMARK  166  A    between atoms: _405  and  _406
REMARK  167  A    between atoms: _408  and  _410
REMARK  168  A    between atoms: _410  and  _411
REMARK  169  A    between atoms: _410  and  _413
REMARK  170  A    between atoms: _413  and  _414
REMARK  171  A    between atoms: _417  and  _419
REMARK  172  A    between atoms: _419  and  _420
REMARK  173  A    between atoms: _419  and  _422
REMARK  174  A    between atoms: _422  and  _423
REMARK  175  A    between atoms: _423  and  _424
REMARK  176  A    between atoms: _429  and  _431
REMARK  177  A    between atoms: _431  and  _432
REMARK  178  A    between atoms: _431  and  _434
REMARK  179  A    between atoms: _434  and  _435
REMARK  180  A    between atoms: _438  and  _440
REMARK  181  A    between atoms: _440  and  _441
REMARK  182  A    between atoms: _440  and  _443
REMARK  183  A    between atoms: _443  and  _444
REMARK  184  A    between atoms: _449  and  _451
REMARK  185  A    between atoms: _451  and  _452
REMARK  186  A    between atoms: _451  and  _454
REMARK  187  A    between atoms: _457  and  _459
REMARK  188  A    between atoms: _459  and  _460
REMARK  189  A    between atoms: _459  and  _462
REMARK  190  A    between atoms: _462  and  _463
REMARK  191  A    between atoms: _466  and  _468
REMARK  192  A    between atoms: _468  and  _469
REMARK  193  A    between atoms: _468  and  _471
REMARK  194  A    between atoms: _474  and  _476
REMARK  195  A    between atoms: _476  and  _477
REMARK  196  A    between atoms: _476  and  _479
REMARK  197  A    between atoms: _479  and  _480
REMARK  198  A    between atoms: _486  and  _488
REMARK  199  A    between atoms: _488  and  _489
REMARK  200  A    between atoms: _492  and  _494
REMARK  201  A    between atoms: _494  and  _495
REMARK  202  A    between atoms: _494  and  _497
REMARK  203  A    between atoms: _497  and  _498
REMARK  204  A    between atoms: _501  and  _503
REMARK  205  A    between atoms: _503  and  _504
REMARK  206  A    between atoms: _503  and  _506
REMARK  207  A    between atoms: _506  and  _507
REMARK  208  A    between atoms: _510  and  _512
REMARK  209  A    between atoms: _512  and  _513
REMARK  210  A    between atoms: _512  and  _515
REMARK  211  A    between atoms: _515  and  _516
REMARK  212  A    between atoms: _516  and  _517
REMARK  213  A    between atoms: _520  and  _522
REMARK  214  A    between atoms: _522  and  _523
REMARK  215  A    between atoms: _526  and  _528
REMARK  216  A    between atoms: _528  and  _529
REMARK  217  A    between atoms: _532  and  _534
REMARK  218  A    between atoms: _534  and  _535
REMARK  219  A    between atoms: _534  and  _537
REMARK  220  A    between atoms: _537  and  _538
REMARK  221  A    between atoms: _543  and  _544
REMARK                            x       y       z     vdW  Elec       q    Type
REMARK                         _______ _______ _______ _____ _____    ______ ____
ROOT
ATOM      1  O   HOH     1      54.081   4.534  53.730  0.00  0.00    +0.000 OA
ENDROOT
TORSDOF 0
REMARK  Name = ../refined-set-2016/3acx/3acx_pocket.pdb
REMARK  221 active torsions:
REMARK  status: ('A' for Active; 'I' for Inactive)
REMARK    1  A    between atoms: _1  and  _3
REMARK    2  A    between atoms: _3  and  _4
REMARK    3  A    between atoms: _3  and  _6
REMARK    4  A    between atoms: _6  and  _7
REMARK    5  A    between atoms: _10  and  _12
REMARK    6  A    between atoms: _12  and  _13
REMARK    7  A    between atoms: _12  and  _15
REMARK    8  A    between atoms: _15  and  _16
REMARK    9  A    between atoms: _16  and  _17
REMARK   10  A    between atoms: _19  and  _21
REMARK   11  A    between atoms: _21  and  _22
REMARK   12  A    between atoms: _21  and  _24
REMARK   13  A    between atoms: _24  and  _25
REMARK   14  A    between atoms: _30  and  _32
REMARK   15  A    between atoms: _32  and  _33
REMARK   16  A    between atoms: _32  and  _35
REMARK   17  A    between atoms: _35  and  _36
REMARK   18  A    between atoms: _38  and  _40
REMARK   19  A    between atoms: _40  and  _41
REMARK   20  A    between atoms: _40  and  _43
REMARK   21  A    between atoms: _43  and  _44
REMARK   22  A    between atoms: _46  and  _48
REMARK   23  A    between atoms: _48  and  _49
REMARK   24  A    between atoms: _48  and  _51
REMARK   25  A    between atoms: _51  and  _52
REMARK   26  A    between atoms: _58  and  _60
REMARK   27  A    between atoms: _60  and  _61
REMARK   28  A    between atoms: _60  and  _63
REMARK   29  A    between atoms: _63  and  _64
REMARK   30  A    between atoms: _66  and  _68
REMARK   31  A    between atoms: _68  and  _69
REMARK   32  A    between atoms: _68  and  _71
REMARK   33  A    between atoms: _71  and  _72
REMARK   34  A    between atoms: _78  and  _80
REMARK   35  A    between atoms: _80  and  _81
REMARK   36  A    between atoms: _80  and  _83
REMARK   37  A    between atoms: _86  and  _88
REMARK   38  A    between atoms: _88  and  _89
REMARK   39  A    between atoms: _88  and  _91
REMARK   40  A    between atoms: _91  and  _92
REMARK   41  A    between atoms: _102  and  _104
REMARK   42  A    between atoms: _104  and  _105
REMARK   43  A    between atoms: _104  and  _107
REMARK   44  A    between atoms: _107  and  _108
REMARK   45  A    between atoms: _111  and  _113
REMARK   46  A    between atoms: _113  and  _114
REMARK   47  A    between atoms: _113  and  _116
REMARK   48  A    between atoms: _116  and  _117
REMARK   49  A    between atoms: _122  and  _123
REMARK   50  A    between atoms: _125  and  _127
REMARK   51  A    between atoms: _127  and  _128
REMARK   52  A    between atoms: _131  and  _133
REMARK   53  A    between atoms: _133  and  _134
REMARK   54  A    between atoms: _133  and  _136
REMARK   55  A    between atoms: _139  and  _141
REMARK   56  A    between atoms: _141  and  _142
REMARK   57  A    between atoms: _141  and  _144
REMARK   58  A    between atoms: _146  and  _148
REMARK   59  A    between atoms: _148  and  _149
REMARK   60  A    between atoms: _148  and  _151
REMARK   61  A    between atoms: _151  and  _152
REMARK   62  A    between atoms: _152  and  _153
REMARK   63  A    between atoms: _153  and  _154
REMARK   64  A    between atoms: _163  and  _165
REMARK   65  A    between atoms: _165  and  _166
REMARK   66  A    between atoms: _165  and  _168
REMARK   67  A    between atoms: _168  and  _169
REMARK   68  A    between atoms: _169  and  _170
REMARK   69  A    between atoms: _170  and  _171
REMARK   70  A    between atoms: _171  and  _172
REMARK   71  A    between atoms: _176  and  _178
REMARK   72  A    between atoms: _178  and  _179
REMARK   73  A    between atoms: _178  and  _181
REMARK   74  A    between atoms: _181  and  _182
REMARK   75  A    between atoms: _185  and  _187
REMARK   76  A    between atoms: _187  and  _188
REMARK   77  A    between atoms: _187  and  _190
REMARK   78  A    between atoms: _190  and  _191
REMARK   79  A    between atoms: _194  and  _196
REMARK   80  A    between atoms: _196  and  _197
REMARK   81  A    between atoms: _196  and  _199
REMARK   82  A    between atoms: _199  and  _200
REMARK   83  A    between atoms: _203  and  _205
REMARK   84  A    between atoms: _205  and  _206
REMARK   85  A    between atoms: _205  and  _208
REMARK   86  A    between atoms: _208  and  _209
REMARK   87  A    between atoms: _212  and  _214
REMARK   88  A    between atoms: _214  and  _215
REMARK   89  A    between atoms: _214  and  _217
REMARK   90  A    between atoms: _219  and  _221
REMARK   91  A    between atoms: _221  and  _222
REMARK   92  A    between atoms: _221  and  _224
REMARK   93  A    between atoms: _227  and  _229
REMARK   94  A    between atoms: _229  and  _230
REMARK   95  A    between atoms: _233  and  _235
REMARK   96  A    between atoms: _235  and  _236
REMARK   97  A    between atoms: _238  and  _240
REMARK   98  A    between atoms: _240  and  _241
REMARK   99  A    between atoms: _240  and  _243
REMARK  100  A    between atoms: _243  and  _244
REMARK  101  A    between atoms: _247  and  _249
REMARK  102  A    between atoms: _249  and  _250
REMARK  103  A    between atoms: _249  and  _252
REMARK  104  A    between atoms: _255  and  _257
REMARK  105  A    between atoms: _257  and  _258
REMARK  106  A    between atoms: _260  and  _262
REMARK  107  A    between atoms: _262  and  _263
REMARK  108  A    between atoms: _262  and  _265
REMARK  109  A    between atoms: _265  and  _266
REMARK  110  A    between atoms: _266  and  _267
REMARK  111  A    between atoms: _270  and  _272
REMARK  112  A    between atoms: _272  and  _273
REMARK  113  A    between atoms: _272  and  _275
REMARK  114  A    between atoms: _278  and  _280
REMARK  115  A    between atoms: _280  and  _281
REMARK  116  A    between atoms: _280  and  _283
REMARK  117  A    between atoms: _283  and  _284
REMARK  118  A    between atoms: _287  and  _289
REMARK  119  A    between atoms: _289  and  _290
REMARK  120  A    between atoms: _289  and  _292
REMARK  121  A    between atoms: _292  and  _293
REMARK  122  A    between atoms: _296  and  _298
REMARK  123  A    between atoms: _298  and  _299
REMARK  124  A    between atoms: _298  and  _301
REMARK  125  A    between atoms: _301  and  _302
REMARK  126  A    between atoms: _305  and  _307
REMARK  127  A    between atoms: _307  and  _308
REMARK  128  A    between atoms: _307  and  _310
REMARK  129  A    between atoms: _310  and  _311
REMARK  130  A    between atoms: _314  and  _316
REMARK  131  A    between atoms: _316  and  _317
REMARK  132  A    between atoms: _316  and  _319
REMARK  133  A    between atoms: _319  and  _320
REMARK  134  A    between atoms: _325  and  _326
REMARK  135  A    between atoms: _328  and  _330
REMARK  136  A    between atoms: _330  and  _331
REMARK  137  A    between atoms: _330  and  _333
REMARK  138  A    between atoms: _336  and  _338
REMARK  139  A    between atoms: _338  and  _339
REMARK  140  A    between atoms: _342  and  _344
REMARK  141  A    between atoms: _344  and  _345
REMARK  142  A    between atoms: _344  and  _347
REMARK  143  A    between atoms: _347  and  _348
REMARK  144  A    between atoms: _348  and  _349
REMARK  145  A    between atoms: _349  and  _350
REMARK  146  A    between atoms: _359  and  _361
REMARK  147  A    between atoms: _361  and  _362
REMARK  148  A    between atoms: _361  and  _364
REMARK  149  A    between atoms: _364  and  _365
REMARK  150  A    between atoms: _365  and  _366
REMARK  151  A    between atoms: _366  and  _367
REMARK  152  A    between atoms: _376  and  _378
REMARK  153  A    between atoms: _378  and  _379
REMARK  154  A    between atoms: _378  and  _381
REMARK  155  A    between atoms: _381  and  _382
REMARK  156  A    between atoms: _385  and  _387
REMARK  157  A    between atoms: _387  and  _388
REMARK  158  A    between atoms: _390  and  _392
REMARK  159  A    between atoms: _392  and  _393
REMARK  160  A    between atoms: _392  and  _395
REMARK  161  A    between atoms: _395  and  _396
REMARK  162  A    between atoms: _396  and  _397
REMARK  163  A    between atoms: _400  and  _402
REMARK  164  A    between atoms: _402  and  _403
REMARK  165  A    between atoms: _402  and  _405
REMARK  166  A    between atoms: _405  and  _406
REMARK  167  A    between atoms: _408  and  _410
REMARK  168  A    between atoms: _410  and  _411
REMARK  169  A    between atoms: _410  and  _413
REMARK  170  A    between atoms: _413  and  _414
REMARK  171  A    between atoms: _417  and  _419
REMARK  172  A    between atoms: _419  and  _420
REMARK  173  A    between atoms: _419  and  _422
REMARK  174  A    between atoms: _422  and  _423
REMARK  175  A    between atoms: _423  and  _424
REMARK  176  A    between atoms: _429  and  _431
REMARK  177  A    between atoms: _431  and  _432
REMARK  178  A    between atoms: _431  and  _434
REMARK  179  A    between atoms: _434  and  _435
REMARK  180  A    between atoms: _438  and  _440
REMARK  181  A    between atoms: _440  and  _441
REMARK  182  A    between atoms: _440  and  _443
REMARK  183  A    between atoms: _443  and  _444
REMARK  184  A    between atoms: _449  and  _451
REMARK  185  A    between atoms: _451  and  _452
REMARK  186  A    between atoms: _451  and  _454
REMARK  187  A    between atoms: _457  and  _459
REMARK  188  A    between atoms: _459  and  _460
REMARK  189  A    between atoms: _459  and  _462
REMARK  190  A    between atoms: _462  and  _463
REMARK  191  A    between atoms: _466  and  _468
REMARK  192  A    between atoms: _468  and  _469
REMARK  193  A    between atoms: _468  and  _471
REMARK  194  A    between atoms: _474  and  _476
REMARK  195  A    between atoms: _476  and  _477
REMARK  196  A    between atoms: _476  and  _479
REMARK  197  A    between atoms: _479  and  _480
REMARK  198  A    between atoms: _486  and  _488
REMARK  199  A    between atoms: _488  and  _489
REMARK  200  A    between atoms: _492  and  _494
REMARK  201  A    between atoms: _494  and  _495
REMARK  202  A    between atoms: _494  and  _497
REMARK  203  A    between atoms: _497  and  _498
REMARK  204  A    between atoms: _501  and  _503
REMARK  205  A    between atoms: _503  and  _504
REMARK  206  A    between atoms: _503  and  _506
REMARK  207  A    between atoms: _506  and  _507
REMARK  208  A    between atoms: _510  and  _512
REMARK  209  A    between atoms: _512  and  _513
REMARK  210  A    between atoms: _512  and  _515
REMARK  211  A    between atoms: _515  and  _516
REMARK  212  A    between atoms: _516  and  _517
REMARK  213  A    between atoms: _520  and  _522
REMARK  214  A    between atoms: _522  and  _523
REMARK  215  A    between atoms: _526  and  _528
REMARK  216  A    between atoms: _528  and  _529
REMARK  217  A    between atoms: _532  and  _534
REMARK  218  A    between atoms: _534  and  _535
REMARK  219  A    between atoms: _534  and  _537
REMARK  220  A    between atoms: _537  and  _538
REMARK  221  A    between atoms: _543  and  _544
REMARK                            x       y       z     vdW  Elec       q    Type
REMARK                         _______ _______ _______ _____ _____    ______ ____
ROOT
ATOM      1  O   HOH     1      58.648   5.425  54.420  0.00  0.00    +0.000 OA
ENDROOT
TORSDOF 0
REMARK  Name = ../refined-set-2016/3acx/3acx_pocket.pdb
REMARK  221 active torsions:
REMARK  status: ('A' for Active; 'I' for Inactive)
REMARK    1  A    between atoms: _1  and  _3
REMARK    2  A    between atoms: _3  and  _4
REMARK    3  A    between atoms: _3  and  _6
REMARK    4  A    between atoms: _6  and  _7
REMARK    5  A    between atoms: _10  and  _12
REMARK    6  A    between atoms: _12  and  _13
REMARK    7  A    between atoms: _12  and  _15
REMARK    8  A    between atoms: _15  and  _16
REMARK    9  A    between atoms: _16  and  _17
REMARK   10  A    between atoms: _19  and  _21
REMARK   11  A    between atoms: _21  and  _22
REMARK   12  A    between atoms: _21  and  _24
REMARK   13  A    between atoms: _24  and  _25
REMARK   14  A    between atoms: _30  and  _32
REMARK   15  A    between atoms: _32  and  _33
REMARK   16  A    between atoms: _32  and  _35
REMARK   17  A    between atoms: _35  and  _36
REMARK   18  A    between atoms: _38  and  _40
REMARK   19  A    between atoms: _40  and  _41
REMARK   20  A    between atoms: _40  and  _43
REMARK   21  A    between atoms: _43  and  _44
REMARK   22  A    between atoms: _46  and  _48
REMARK   23  A    between atoms: _48  and  _49
REMARK   24  A    between atoms: _48  and  _51
REMARK   25  A    between atoms: _51  and  _52
REMARK   26  A    between atoms: _58  and  _60
REMARK   27  A    between atoms: _60  and  _61
REMARK   28  A    between atoms: _60  and  _63
REMARK   29  A    between atoms: _63  and  _64
REMARK   30  A    between atoms: _66  and  _68
REMARK   31  A    between atoms: _68  and  _69
REMARK   32  A    between atoms: _68  and  _71
REMARK   33  A    between atoms: _71  and  _72
REMARK   34  A    between atoms: _78  and  _80
REMARK   35  A    between atoms: _80  and  _81
REMARK   36  A    between atoms: _80  and  _83
REMARK   37  A    between atoms: _86  and  _88
REMARK   38  A    between atoms: _88  and  _89
REMARK   39  A    between atoms: _88  and  _91
REMARK   40  A    between atoms: _91  and  _92
REMARK   41  A    between atoms: _102  and  _104
REMARK   42  A    between atoms: _104  and  _105
REMARK   43  A    between atoms: _104  and  _107
REMARK   44  A    between atoms: _107  and  _108
REMARK   45  A    between atoms: _111  and  _113
REMARK   46  A    between atoms: _113  and  _114
REMARK   47  A    between atoms: _113  and  _116
REMARK   48  A    between atoms: _116  and  _117
REMARK   49  A    between atoms: _122  and  _123
REMARK   50  A    between atoms: _125  and  _127
REMARK   51  A    between atoms: _127  and  _128
REMARK   52  A    between atoms: _131  and  _133
REMARK   53  A    between atoms: _133  and  _134
REMARK   54  A    between atoms: _133  and  _136
REMARK   55  A    between atoms: _139  and  _141
REMARK   56  A    between atoms: _141  and  _142
REMARK   57  A    between atoms: _141  and  _144
REMARK   58  A    between atoms: _146  and  _148
REMARK   59  A    between atoms: _148  and  _149
REMARK   60  A    between atoms: _148  and  _151
REMARK   61  A    between atoms: _151  and  _152
REMARK   62  A    between atoms: _152  and  _153
REMARK   63  A    between atoms: _153  and  _154
REMARK   64  A    between atoms: _163  and  _165
REMARK   65  A    between atoms: _165  and  _166
REMARK   66  A    between atoms: _165  and  _168
REMARK   67  A    between atoms: _168  and  _169
REMARK   68  A    between atoms: _169  and  _170
REMARK   69  A    between atoms: _170  and  _171
REMARK   70  A    between atoms: _171  and  _172
REMARK   71  A    between atoms: _176  and  _178
REMARK   72  A    between atoms: _178  and  _179
REMARK   73  A    between atoms: _178  and  _181
REMARK   74  A    between atoms: _181  and  _182
REMARK   75  A    between atoms: _185  and  _187
REMARK   76  A    between atoms: _187  and  _188
REMARK   77  A    between atoms: _187  and  _190
REMARK   78  A    between atoms: _190  and  _191
REMARK   79  A    between atoms: _194  and  _196
REMARK   80  A    between atoms: _196  and  _197
REMARK   81  A    between atoms: _196  and  _199
REMARK   82  A    between atoms: _199  and  _200
REMARK   83  A    between atoms: _203  and  _205
REMARK   84  A    between atoms: _205  and  _206
REMARK   85  A    between atoms: _205  and  _208
REMARK   86  A    between atoms: _208  and  _209
REMARK   87  A    between atoms: _212  and  _214
REMARK   88  A    between atoms: _214  and  _215
REMARK   89  A    between atoms: _214  and  _217
REMARK   90  A    between atoms: _219  and  _221
REMARK   91  A    between atoms: _221  and  _222
REMARK   92  A    between atoms: _221  and  _224
REMARK   93  A    between atoms: _227  and  _229
REMARK   94  A    between atoms: _229  and  _230
REMARK   95  A    between atoms: _233  and  _235
REMARK   96  A    between atoms: _235  and  _236
REMARK   97  A    between atoms: _238  and  _240
REMARK   98  A    between atoms: _240  and  _241
REMARK   99  A    between atoms: _240  and  _243
REMARK  100  A    between atoms: _243  and  _244
REMARK  101  A    between atoms: _247  and  _249
REMARK  102  A    between atoms: _249  and  _250
REMARK  103  A    between atoms: _249  and  _252
REMARK  104  A    between atoms: _255  and  _257
REMARK  105  A    between atoms: _257  and  _258
REMARK  106  A    between atoms: _260  and  _262
REMARK  107  A    between atoms: _262  and  _263
REMARK  108  A    between atoms: _262  and  _265
REMARK  109  A    between atoms: _265  and  _266
REMARK  110  A    between atoms: _266  and  _267
REMARK  111  A    between atoms: _270  and  _272
REMARK  112  A    between atoms: _272  and  _273
REMARK  113  A    between atoms: _272  and  _275
REMARK  114  A    between atoms: _278  and  _280
REMARK  115  A    between atoms: _280  and  _281
REMARK  116  A    between atoms: _280  and  _283
REMARK  117  A    between atoms: _283  and  _284
REMARK  118  A    between atoms: _287  and  _289
REMARK  119  A    between atoms: _289  and  _290
REMARK  120  A    between atoms: _289  and  _292
REMARK  121  A    between atoms: _292  and  _293
REMARK  122  A    between atoms: _296  and  _298
REMARK  123  A    between atoms: _298  and  _299
REMARK  124  A    between atoms: _298  and  _301
REMARK  125  A    between atoms: _301  and  _302
REMARK  126  A    between atoms: _305  and  _307
REMARK  127  A    between atoms: _307  and  _308
REMARK  128  A    between atoms: _307  and  _310
REMARK  129  A    between atoms: _310  and  _311
REMARK  130  A    between atoms: _314  and  _316
REMARK  131  A    between atoms: _316  and  _317
REMARK  132  A    between atoms: _316  and  _319
REMARK  133  A    between atoms: _319  and  _320
REMARK  134  A    between atoms: _325  and  _326
REMARK  135  A    between atoms: _328  and  _330
REMARK  136  A    between atoms: _330  and  _331
REMARK  137  A    between atoms: _330  and  _333
REMARK  138  A    between atoms: _336  and  _338
REMARK  139  A    between atoms: _338  and  _339
REMARK  140  A    between atoms: _342  and  _344
REMARK  141  A    between atoms: _344  and  _345
REMARK  142  A    between atoms: _344  and  _347
REMARK  143  A    between atoms: _347  and  _348
REMARK  144  A    between atoms: _348  and  _349
REMARK  145  A    between atoms: _349  and  _350
REMARK  146  A    between atoms: _359  and  _361
REMARK  147  A    between atoms: _361  and  _362
REMARK  148  A    between atoms: _361  and  _364
REMARK  149  A    between atoms: _364  and  _365
REMARK  150  A    between atoms: _365  and  _366
REMARK  151  A    between atoms: _366  and  _367
REMARK  152  A    between atoms: _376  and  _378
REMARK  153  A    between atoms: _378  and  _379
REMARK  154  A    between atoms: _378  and  _381
REMARK  155  A    between atoms: _381  and  _382
REMARK  156  A    between atoms: _385  and  _387
REMARK  157  A    between atoms: _387  and  _388
REMARK  158  A    between atoms: _390  and  _392
REMARK  159  A    between atoms: _392  and  _393
REMARK  160  A    between atoms: _392  and  _395
REMARK  161  A    between atoms: _395  and  _396
REMARK  162  A    between atoms: _396  and  _397
REMARK  163  A    between atoms: _400  and  _402
REMARK  164  A    between atoms: _402  and  _403
REMARK  165  A    between atoms: _402  and  _405
REMARK  166  A    between atoms: _405  and  _406
REMARK  167  A    between atoms: _408  and  _410
REMARK  168  A    between atoms: _410  and  _411
REMARK  169  A    between atoms: _410  and  _413
REMARK  170  A    between atoms: _413  and  _414
REMARK  171  A    between atoms: _417  and  _419
REMARK  172  A    between atoms: _419  and  _420
REMARK  173  A    between atoms: _419  and  _422
REMARK  174  A    between atoms: _422  and  _423
REMARK  175  A    between atoms: _423  and  _424
REMARK  176  A    between atoms: _429  and  _431
REMARK  177  A    between atoms: _431  and  _432
REMARK  178  A    between atoms: _431  and  _434
REMARK  179  A    between atoms: _434  and  _435
REMARK  180  A    between atoms: _438  and  _440
REMARK  181  A    between atoms: _440  and  _441
REMARK  182  A    between atoms: _440  and  _443
REMARK  183  A    between atoms: _443  and  _444
REMARK  184  A    between atoms: _449  and  _451
REMARK  185  A    between atoms: _451  and  _452
REMARK  186  A    between atoms: _451  and  _454
REMARK  187  A    between atoms: _457  and  _459
REMARK  188  A    between atoms: _459  and  _460
REMARK  189  A    between atoms: _459  and  _462
REMARK  190  A    between atoms: _462  and  _463
REMARK  191  A    between atoms: _466  and  _468
REMARK  192  A    between atoms: _468  and  _469
REMARK  193  A    between atoms: _468  and  _471
REMARK  194  A    between atoms: _474  and  _476
REMARK  195  A    between atoms: _476  and  _477
REMARK  196  A    between atoms: _476  and  _479
REMARK  197  A    between atoms: _479  and  _480
REMARK  198  A    between atoms: _486  and  _488
REMARK  199  A    between atoms: _488  and  _489
REMARK  200  A    between atoms: _492  and  _494
REMARK  201  A    between atoms: _494  and  _495
REMARK  202  A    between atoms: _494  and  _497
REMARK  203  A    between atoms: _497  and  _498
REMARK  204  A    between atoms: _501  and  _503
REMARK  205  A    between atoms: _503  and  _504
REMARK  206  A    between atoms: _503  and  _506
REMARK  207  A    between atoms: _506  and  _507
REMARK  208  A    between atoms: _510  and  _512
REMARK  209  A    between atoms: _512  and  _513
REMARK  210  A    between atoms: _512  and  _515
REMARK  211  A    between atoms: _515  and  _516
REMARK  212  A    between atoms: _516  and  _517
REMARK  213  A    between atoms: _520  and  _522
REMARK  214  A    between atoms: _522  and  _523
REMARK  215  A    between atoms: _526  and  _528
REMARK  216  A    between atoms: _528  and  _529
REMARK  217  A    between atoms: _532  and  _534
REMARK  218  A    between atoms: _534  and  _535
REMARK  219  A    between atoms: _534  and  _537
REMARK  220  A    between atoms: _537  and  _538
REMARK  221  A    between atoms: _543  and  _544
REMARK                            x       y       z     vdW  Elec       q    Type
REMARK                         _______ _______ _______ _____ _____    ______ ____
ROOT
ATOM      1  O   HOH     1      55.706   6.368  49.502  0.00  0.00    +0.000 OA
ENDROOT
TORSDOF 0
REMARK  Name = ../refined-set-2016/3acx/3acx_pocket.pdb
REMARK  221 active torsions:
REMARK  status: ('A' for Active; 'I' for Inactive)
REMARK    1  A    between atoms: _1  and  _3
REMARK    2  A    between atoms: _3  and  _4
REMARK    3  A    between atoms: _3  and  _6
REMARK    4  A    between atoms: _6  and  _7
REMARK    5  A    between atoms: _10  and  _12
REMARK    6  A    between atoms: _12  and  _13
REMARK    7  A    between atoms: _12  and  _15
REMARK    8  A    between atoms: _15  and  _16
REMARK    9  A    between atoms: _16  and  _17
REMARK   10  A    between atoms: _19  and  _21
REMARK   11  A    between atoms: _21  and  _22
REMARK   12  A    between atoms: _21  and  _24
REMARK   13  A    between atoms: _24  and  _25
REMARK   14  A    between atoms: _30  and  _32
REMARK   15  A    between atoms: _32  and  _33
REMARK   16  A    between atoms: _32  and  _35
REMARK   17  A    between atoms: _35  and  _36
REMARK   18  A    between atoms: _38  and  _40
REMARK   19  A    between atoms: _40  and  _41
REMARK   20  A    between atoms: _40  and  _43
REMARK   21  A    between atoms: _43  and  _44
REMARK   22  A    between atoms: _46  and  _48
REMARK   23  A    between atoms: _48  and  _49
REMARK   24  A    between atoms: _48  and  _51
REMARK   25  A    between atoms: _51  and  _52
REMARK   26  A    between atoms: _58  and  _60
REMARK   27  A    between atoms: _60  and  _61
REMARK   28  A    between atoms: _60  and  _63
REMARK   29  A    between atoms: _63  and  _64
REMARK   30  A    between atoms: _66  and  _68
REMARK   31  A    between atoms: _68  and  _69
REMARK   32  A    between atoms: _68  and  _71
REMARK   33  A    between atoms: _71  and  _72
REMARK   34  A    between atoms: _78  and  _80
REMARK   35  A    between atoms: _80  and  _81
REMARK   36  A    between atoms: _80  and  _83
REMARK   37  A    between atoms: _86  and  _88
REMARK   38  A    between atoms: _88  and  _89
REMARK   39  A    between atoms: _88  and  _91
REMARK   40  A    between atoms: _91  and  _92
REMARK   41  A    between atoms: _102  and  _104
REMARK   42  A    between atoms: _104  and  _105
REMARK   43  A    between atoms: _104  and  _107
REMARK   44  A    between atoms: _107  and  _108
REMARK   45  A    between atoms: _111  and  _113
REMARK   46  A    between atoms: _113  and  _114
REMARK   47  A    between atoms: _113  and  _116
REMARK   48  A    between atoms: _116  and  _117
REMARK   49  A    between atoms: _122  and  _123
REMARK   50  A    between atoms: _125  and  _127
REMARK   51  A    between atoms: _127  and  _128
REMARK   52  A    between atoms: _131  and  _133
REMARK   53  A    between atoms: _133  and  _134
REMARK   54  A    between atoms: _133  and  _136
REMARK   55  A    between atoms: _139  and  _141
REMARK   56  A    between atoms: _141  and  _142
REMARK   57  A    between atoms: _141  and  _144
REMARK   58  A    between atoms: _146  and  _148
REMARK   59  A    between atoms: _148  and  _149
REMARK   60  A    between atoms: _148  and  _151
REMARK   61  A    between atoms: _151  and  _152
REMARK   62  A    between atoms: _152  and  _153
REMARK   63  A    between atoms: _153  and  _154
REMARK   64  A    between atoms: _163  and  _165
REMARK   65  A    between atoms: _165  and  _166
REMARK   66  A    between atoms: _165  and  _168
REMARK   67  A    between atoms: _168  and  _169
REMARK   68  A    between atoms: _169  and  _170
REMARK   69  A    between atoms: _170  and  _171
REMARK   70  A    between atoms: _171  and  _172
REMARK   71  A    between atoms: _176  and  _178
REMARK   72  A    between atoms: _178  and  _179
REMARK   73  A    between atoms: _178  and  _181
REMARK   74  A    between atoms: _181  and  _182
REMARK   75  A    between atoms: _185  and  _187
REMARK   76  A    between atoms: _187  and  _188
REMARK   77  A    between atoms: _187  and  _190
REMARK   78  A    between atoms: _190  and  _191
REMARK   79  A    between atoms: _194  and  _196
REMARK   80  A    between atoms: _196  and  _197
REMARK   81  A    between atoms: _196  and  _199
REMARK   82  A    between atoms: _199  and  _200
REMARK   83  A    between atoms: _203  and  _205
REMARK   84  A    between atoms: _205  and  _206
REMARK   85  A    between atoms: _205  and  _208
REMARK   86  A    between atoms: _208  and  _209
REMARK   87  A    between atoms: _212  and  _214
REMARK   88  A    between atoms: _214  and  _215
REMARK   89  A    between atoms: _214  and  _217
REMARK   90  A    between atoms: _219  and  _221
REMARK   91  A    between atoms: _221  and  _222
REMARK   92  A    between atoms: _221  and  _224
REMARK   93  A    between atoms: _227  and  _229
REMARK   94  A    between atoms: _229  and  _230
REMARK   95  A    between atoms: _233  and  _235
REMARK   96  A    between atoms: _235  and  _236
REMARK   97  A    between atoms: _238  and  _240
REMARK   98  A    between atoms: _240  and  _241
REMARK   99  A    between atoms: _240  and  _243
REMARK  100  A    between atoms: _243  and  _244
REMARK  101  A    between atoms: _247  and  _249
REMARK  102  A    between atoms: _249  and  _250
REMARK  103  A    between atoms: _249  and  _252
REMARK  104  A    between atoms: _255  and  _257
REMARK  105  A    between atoms: _257  and  _258
REMARK  106  A    between atoms: _260  and  _262
REMARK  107  A    between atoms: _262  and  _263
REMARK  108  A    between atoms: _262  and  _265
REMARK  109  A    between atoms: _265  and  _266
REMARK  110  A    between atoms: _266  and  _267
REMARK  111  A    between atoms: _270  and  _272
REMARK  112  A    between atoms: _272  and  _273
REMARK  113  A    between atoms: _272  and  _275
REMARK  114  A    between atoms: _278  and  _280
REMARK  115  A    between atoms: _280  and  _281
REMARK  116  A    between atoms: _280  and  _283
REMARK  117  A    between atoms: _283  and  _284
REMARK  118  A    between atoms: _287  and  _289
REMARK  119  A    between atoms: _289  and  _290
REMARK  120  A    between atoms: _289  and  _292
REMARK  121  A    between atoms: _292  and  _293
REMARK  122  A    between atoms: _296  and  _298
REMARK  123  A    between atoms: _298  and  _299
REMARK  124  A    between atoms: _298  and  _301
REMARK  125  A    between atoms: _301  and  _302
REMARK  126  A    between atoms: _305  and  _307
REMARK  127  A    between atoms: _307  and  _308
REMARK  128  A    between atoms: _307  and  _310
REMARK  129  A    between atoms: _310  and  _311
REMARK  130  A    between atoms: _314  and  _316
REMARK  131  A    between atoms: _316  and  _317
REMARK  132  A    between atoms: _316  and  _319
REMARK  133  A    between atoms: _319  and  _320
REMARK  134  A    between atoms: _325  and  _326
REMARK  135  A    between atoms: _328  and  _330
REMARK  136  A    between atoms: _330  and  _331
REMARK  137  A    between atoms: _330  and  _333
REMARK  138  A    between atoms: _336  and  _338
REMARK  139  A    between atoms: _338  and  _339
REMARK  140  A    between atoms: _342  and  _344
REMARK  141  A    between atoms: _344  and  _345
REMARK  142  A    between atoms: _344  and  _347
REMARK  143  A    between atoms: _347  and  _348
REMARK  144  A    between atoms: _348  and  _349
REMARK  145  A    between atoms: _349  and  _350
REMARK  146  A    between atoms: _359  and  _361
REMARK  147  A    between atoms: _361  and  _362
REMARK  148  A    between atoms: _361  and  _364
REMARK  149  A    between atoms: _364  and  _365
REMARK  150  A    between atoms: _365  and  _366
REMARK  151  A    between atoms: _366  and  _367
REMARK  152  A    between atoms: _376  and  _378
REMARK  153  A    between atoms: _378  and  _379
REMARK  154  A    between atoms: _378  and  _381
REMARK  155  A    between atoms: _381  and  _382
REMARK  156  A    between atoms: _385  and  _387
REMARK  157  A    between atoms: _387  and  _388
REMARK  158  A    between atoms: _390  and  _392
REMARK  159  A    between atoms: _392  and  _393
REMARK  160  A    between atoms: _392  and  _395
REMARK  161  A    between atoms: _395  and  _396
REMARK  162  A    between atoms: _396  and  _397
REMARK  163  A    between atoms: _400  and  _402
REMARK  164  A    between atoms: _402  and  _403
REMARK  165  A    between atoms: _402  and  _405
REMARK  166  A    between atoms: _405  and  _406
REMARK  167  A    between atoms: _408  and  _410
REMARK  168  A    between atoms: _410  and  _411
REMARK  169  A    between atoms: _410  and  _413
REMARK  170  A    between atoms: _413  and  _414
REMARK  171  A    between atoms: _417  and  _419
REMARK  172  A    between atoms: _419  and  _420
REMARK  173  A    between atoms: _419  and  _422
REMARK  174  A    between atoms: _422  and  _423
REMARK  175  A    between atoms: _423  and  _424
REMARK  176  A    between atoms: _429  and  _431
REMARK  177  A    between atoms: _431  and  _432
REMARK  178  A    between atoms: _431  and  _434
REMARK  179  A    between atoms: _434  and  _435
REMARK  180  A    between atoms: _438  and  _440
REMARK  181  A    between atoms: _440  and  _441
REMARK  182  A    between atoms: _440  and  _443
REMARK  183  A    between atoms: _443  and  _444
REMARK  184  A    between atoms: _449  and  _451
REMARK  185  A    between atoms: _451  and  _452
REMARK  186  A    between atoms: _451  and  _454
REMARK  187  A    between atoms: _457  and  _459
REMARK  188  A    between atoms: _459  and  _460
REMARK  189  A    between atoms: _459  and  _462
REMARK  190  A    between atoms: _462  and  _463
REMARK  191  A    between atoms: _466  and  _468
REMARK  192  A    between atoms: _468  and  _469
REMARK  193  A    between atoms: _468  and  _471
REMARK  194  A    between atoms: _474  and  _476
REMARK  195  A    between atoms: _476  and  _477
REMARK  196  A    between atoms: _476  and  _479
REMARK  197  A    between atoms: _479  and  _480
REMARK  198  A    between atoms: _486  and  _488
REMARK  199  A    between atoms: _488  and  _489
REMARK  200  A    between atoms: _492  and  _494
REMARK  201  A    between atoms: _494  and  _495
REMARK  202  A    between atoms: _494  and  _497
REMARK  203  A    between atoms: _497  and  _498
REMARK  204  A    between atoms: _501  and  _503
REMARK  205  A    between atoms: _503  and  _504
REMARK  206  A    between atoms: _503  and  _506
REMARK  207  A    between atoms: _506  and  _507
REMARK  208  A    between atoms: _510  and  _512
REMARK  209  A    between atoms: _512  and  _513
REMARK  210  A    between atoms: _512  and  _515
REMARK  211  A    between atoms: _515  and  _516
REMARK  212  A    between atoms: _516  and  _517
REMARK  213  A    between atoms: _520  and  _522
REMARK  214  A    between atoms: _522  and  _523
REMARK  215  A    between atoms: _526  and  _528
REMARK  216  A    between atoms: _528  and  _529
REMARK  217  A    between atoms: _532  and  _534
REMARK  218  A    between atoms: _534  and  _535
REMARK  219  A    between atoms: _534  and  _537
REMARK  220  A    between atoms: _537  and  _538
REMARK  221  A    between atoms: _543  and  _544
REMARK                            x       y       z     vdW  Elec       q    Type
REMARK                         _______ _______ _______ _____ _____    ______ ____
ROOT
ATOM      1  O   HOH     1      53.691   9.909  50.147  0.00  0.00    +0.000 OA
ENDROOT
TORSDOF 0
REMARK  Name = ../refined-set-2016/3acx/3acx_pocket.pdb
REMARK  221 active torsions:
REMARK  status: ('A' for Active; 'I' for Inactive)
REMARK    1  A    between atoms: _1  and  _3
REMARK    2  A    between atoms: _3  and  _4
REMARK    3  A    between atoms: _3  and  _6
REMARK    4  A    between atoms: _6  and  _7
REMARK    5  A    between atoms: _10  and  _12
REMARK    6  A    between atoms: _12  and  _13
REMARK    7  A    between atoms: _12  and  _15
REMARK    8  A    between atoms: _15  and  _16
REMARK    9  A    between atoms: _16  and  _17
REMARK   10  A    between atoms: _19  and  _21
REMARK   11  A    between atoms: _21  and  _22
REMARK   12  A    between atoms: _21  and  _24
REMARK   13  A    between atoms: _24  and  _25
REMARK   14  A    between atoms: _30  and  _32
REMARK   15  A    between atoms: _32  and  _33
REMARK   16  A    between atoms: _32  and  _35
REMARK   17  A    between atoms: _35  and  _36
REMARK   18  A    between atoms: _38  and  _40
REMARK   19  A    between atoms: _40  and  _41
REMARK   20  A    between atoms: _40  and  _43
REMARK   21  A    between atoms: _43  and  _44
REMARK   22  A    between atoms: _46  and  _48
REMARK   23  A    between atoms: _48  and  _49
REMARK   24  A    between atoms: _48  and  _51
REMARK   25  A    between atoms: _51  and  _52
REMARK   26  A    between atoms: _58  and  _60
REMARK   27  A    between atoms: _60  and  _61
REMARK   28  A    between atoms: _60  and  _63
REMARK   29  A    between atoms: _63  and  _64
REMARK   30  A    between atoms: _66  and  _68
REMARK   31  A    between atoms: _68  and  _69
REMARK   32  A    between atoms: _68  and  _71
REMARK   33  A    between atoms: _71  and  _72
REMARK   34  A    between atoms: _78  and  _80
REMARK   35  A    between atoms: _80  and  _81
REMARK   36  A    between atoms: _80  and  _83
REMARK   37  A    between atoms: _86  and  _88
REMARK   38  A    between atoms: _88  and  _89
REMARK   39  A    between atoms: _88  and  _91
REMARK   40  A    between atoms: _91  and  _92
REMARK   41  A    between atoms: _102  and  _104
REMARK   42  A    between atoms: _104  and  _105
REMARK   43  A    between atoms: _104  and  _107
REMARK   44  A    between atoms: _107  and  _108
REMARK   45  A    between atoms: _111  and  _113
REMARK   46  A    between atoms: _113  and  _114
REMARK   47  A    between atoms: _113  and  _116
REMARK   48  A    between atoms: _116  and  _117
REMARK   49  A    between atoms: _122  and  _123
REMARK   50  A    between atoms: _125  and  _127
REMARK   51  A    between atoms: _127  and  _128
REMARK   52  A    between atoms: _131  and  _133
REMARK   53  A    between atoms: _133  and  _134
REMARK   54  A    between atoms: _133  and  _136
REMARK   55  A    between atoms: _139  and  _141
REMARK   56  A    between atoms: _141  and  _142
REMARK   57  A    between atoms: _141  and  _144
REMARK   58  A    between atoms: _146  and  _148
REMARK   59  A    between atoms: _148  and  _149
REMARK   60  A    between atoms: _148  and  _151
REMARK   61  A    between atoms: _151  and  _152
REMARK   62  A    between atoms: _152  and  _153
REMARK   63  A    between atoms: _153  and  _154
REMARK   64  A    between atoms: _163  and  _165
REMARK   65  A    between atoms: _165  and  _166
REMARK   66  A    between atoms: _165  and  _168
REMARK   67  A    between atoms: _168  and  _169
REMARK   68  A    between atoms: _169  and  _170
REMARK   69  A    between atoms: _170  and  _171
REMARK   70  A    between atoms: _171  and  _172
REMARK   71  A    between atoms: _176  and  _178
REMARK   72  A    between atoms: _178  and  _179
REMARK   73  A    between atoms: _178  and  _181
REMARK   74  A    between atoms: _181  and  _182
REMARK   75  A    between atoms: _185  and  _187
REMARK   76  A    between atoms: _187  and  _188
REMARK   77  A    between atoms: _187  and  _190
REMARK   78  A    between atoms: _190  and  _191
REMARK   79  A    between atoms: _194  and  _196
REMARK   80  A    between atoms: _196  and  _197
REMARK   81  A    between atoms: _196  and  _199
REMARK   82  A    between atoms: _199  and  _200
REMARK   83  A    between atoms: _203  and  _205
REMARK   84  A    between atoms: _205  and  _206
REMARK   85  A    between atoms: _205  and  _208
REMARK   86  A    between atoms: _208  and  _209
REMARK   87  A    between atoms: _212  and  _214
REMARK   88  A    between atoms: _214  and  _215
REMARK   89  A    between atoms: _214  and  _217
REMARK   90  A    between atoms: _219  and  _221
REMARK   91  A    between atoms: _221  and  _222
REMARK   92  A    between atoms: _221  and  _224
REMARK   93  A    between atoms: _227  and  _229
REMARK   94  A    between atoms: _229  and  _230
REMARK   95  A    between atoms: _233  and  _235
REMARK   96  A    between atoms: _235  and  _236
REMARK   97  A    between atoms: _238  and  _240
REMARK   98  A    between atoms: _240  and  _241
REMARK   99  A    between atoms: _240  and  _243
REMARK  100  A    between atoms: _243  and  _244
REMARK  101  A    between atoms: _247  and  _249
REMARK  102  A    between atoms: _249  and  _250
REMARK  103  A    between atoms: _249  and  _252
REMARK  104  A    between atoms: _255  and  _257
REMARK  105  A    between atoms: _257  and  _258
REMARK  106  A    between atoms: _260  and  _262
REMARK  107  A    between atoms: _262  and  _263
REMARK  108  A    between atoms: _262  and  _265
REMARK  109  A    between atoms: _265  and  _266
REMARK  110  A    between atoms: _266  and  _267
REMARK  111  A    between atoms: _270  and  _272
REMARK  112  A    between atoms: _272  and  _273
REMARK  113  A    between atoms: _272  and  _275
REMARK  114  A    between atoms: _278  and  _280
REMARK  115  A    between atoms: _280  and  _281
REMARK  116  A    between atoms: _280  and  _283
REMARK  117  A    between atoms: _283  and  _284
REMARK  118  A    between atoms: _287  and  _289
REMARK  119  A    between atoms: _289  and  _290
REMARK  120  A    between atoms: _289  and  _292
REMARK  121  A    between atoms: _292  and  _293
REMARK  122  A    between atoms: _296  and  _298
REMARK  123  A    between atoms: _298  and  _299
REMARK  124  A    between atoms: _298  and  _301
REMARK  125  A    between atoms: _301  and  _302
REMARK  126  A    between atoms: _305  and  _307
REMARK  127  A    between atoms: _307  and  _308
REMARK  128  A    between atoms: _307  and  _310
REMARK  129  A    between atoms: _310  and  _311
REMARK  130  A    between atoms: _314  and  _316
REMARK  131  A    between atoms: _316  and  _317
REMARK  132  A    between atoms: _316  and  _319
REMARK  133  A    between atoms: _319  and  _320
REMARK  134  A    between atoms: _325  and  _326
REMARK  135  A    between atoms: _328  and  _330
REMARK  136  A    between atoms: _330  and  _331
REMARK  137  A    between atoms: _330  and  _333
REMARK  138  A    between atoms: _336  and  _338
REMARK  139  A    between atoms: _338  and  _339
REMARK  140  A    between atoms: _342  and  _344
REMARK  141  A    between atoms: _344  and  _345
REMARK  142  A    between atoms: _344  and  _347
REMARK  143  A    between atoms: _347  and  _348
REMARK  144  A    between atoms: _348  and  _349
REMARK  145  A    between atoms: _349  and  _350
REMARK  146  A    between atoms: _359  and  _361
REMARK  147  A    between atoms: _361  and  _362
REMARK  148  A    between atoms: _361  and  _364
REMARK  149  A    between atoms: _364  and  _365
REMARK  150  A    between atoms: _365  and  _366
REMARK  151  A    between atoms: _366  and  _367
REMARK  152  A    between atoms: _376  and  _378
REMARK  153  A    between atoms: _378  and  _379
REMARK  154  A    between atoms: _378  and  _381
REMARK  155  A    between atoms: _381  and  _382
REMARK  156  A    between atoms: _385  and  _387
REMARK  157  A    between atoms: _387  and  _388
REMARK  158  A    between atoms: _390  and  _392
REMARK  159  A    between atoms: _392  and  _393
REMARK  160  A    between atoms: _392  and  _395
REMARK  161  A    between atoms: _395  and  _396
REMARK  162  A    between atoms: _396  and  _397
REMARK  163  A    between atoms: _400  and  _402
REMARK  164  A    between atoms: _402  and  _403
REMARK  165  A    between atoms: _402  and  _405
REMARK  166  A    between atoms: _405  and  _406
REMARK  167  A    between atoms: _408  and  _410
REMARK  168  A    between atoms: _410  and  _411
REMARK  169  A    between atoms: _410  and  _413
REMARK  170  A    between atoms: _413  and  _414
REMARK  171  A    between atoms: _417  and  _419
REMARK  172  A    between atoms: _419  and  _420
REMARK  173  A    between atoms: _419  and  _422
REMARK  174  A    between atoms: _422  and  _423
REMARK  175  A    between atoms: _423  and  _424
REMARK  176  A    between atoms: _429  and  _431
REMARK  177  A    between atoms: _431  and  _432
REMARK  178  A    between atoms: _431  and  _434
REMARK  179  A    between atoms: _434  and  _435
REMARK  180  A    between atoms: _438  and  _440
REMARK  181  A    between atoms: _440  and  _441
REMARK  182  A    between atoms: _440  and  _443
REMARK  183  A    between atoms: _443  and  _444
REMARK  184  A    between atoms: _449  and  _451
REMARK  185  A    between atoms: _451  and  _452
REMARK  186  A    between atoms: _451  and  _454
REMARK  187  A    between atoms: _457  and  _459
REMARK  188  A    between atoms: _459  and  _460
REMARK  189  A    between atoms: _459  and  _462
REMARK  190  A    between atoms: _462  and  _463
REMARK  191  A    between atoms: _466  and  _468
REMARK  192  A    between atoms: _468  and  _469
REMARK  193  A    between atoms: _468  and  _471
REMARK  194  A    between atoms: _474  and  _476
REMARK  195  A    between atoms: _476  and  _477
REMARK  196  A    between atoms: _476  and  _479
REMARK  197  A    between atoms: _479  and  _480
REMARK  198  A    between atoms: _486  and  _488
REMARK  199  A    between atoms: _488  and  _489
REMARK  200  A    between atoms: _492  and  _494
REMARK  201  A    between atoms: _494  and  _495
REMARK  202  A    between atoms: _494  and  _497
REMARK  203  A    between atoms: _497  and  _498
REMARK  204  A    between atoms: _501  and  _503
REMARK  205  A    between atoms: _503  and  _504
REMARK  206  A    between atoms: _503  and  _506
REMARK  207  A    between atoms: _506  and  _507
REMARK  208  A    between atoms: _510  and  _512
REMARK  209  A    between atoms: _512  and  _513
REMARK  210  A    between atoms: _512  and  _515
REMARK  211  A    between atoms: _515  and  _516
REMARK  212  A    between atoms: _516  and  _517
REMARK  213  A    between atoms: _520  and  _522
REMARK  214  A    between atoms: _522  and  _523
REMARK  215  A    between atoms: _526  and  _528
REMARK  216  A    between atoms: _528  and  _529
REMARK  217  A    between atoms: _532  and  _534
REMARK  218  A    between atoms: _534  and  _535
REMARK  219  A    between atoms: _534  and  _537
REMARK  220  A    between atoms: _537  and  _538
REMARK  221  A    between atoms: _543  and  _544
REMARK                            x       y       z     vdW  Elec       q    Type
REMARK                         _______ _______ _______ _____ _____    ______ ____
ROOT
ATOM      1  O   HOH     1      59.671   7.956  54.858  0.00  0.00    +0.000 OA
ENDROOT
TORSDOF 0
REMARK  Name = ../refined-set-2016/3acx/3acx_pocket.pdb
REMARK  221 active torsions:
REMARK  status: ('A' for Active; 'I' for Inactive)
REMARK    1  A    between atoms: _1  and  _3
REMARK    2  A    between atoms: _3  and  _4
REMARK    3  A    between atoms: _3  and  _6
REMARK    4  A    between atoms: _6  and  _7
REMARK    5  A    between atoms: _10  and  _12
REMARK    6  A    between atoms: _12  and  _13
REMARK    7  A    between atoms: _12  and  _15
REMARK    8  A    between atoms: _15  and  _16
REMARK    9  A    between atoms: _16  and  _17
REMARK   10  A    between atoms: _19  and  _21
REMARK   11  A    between atoms: _21  and  _22
REMARK   12  A    between atoms: _21  and  _24
REMARK   13  A    between atoms: _24  and  _25
REMARK   14  A    between atoms: _30  and  _32
REMARK   15  A    between atoms: _32  and  _33
REMARK   16  A    between atoms: _32  and  _35
REMARK   17  A    between atoms: _35  and  _36
REMARK   18  A    between atoms: _38  and  _40
REMARK   19  A    between atoms: _40  and  _41
REMARK   20  A    between atoms: _40  and  _43
REMARK   21  A    between atoms: _43  and  _44
REMARK   22  A    between atoms: _46  and  _48
REMARK   23  A    between atoms: _48  and  _49
REMARK   24  A    between atoms: _48  and  _51
REMARK   25  A    between atoms: _51  and  _52
REMARK   26  A    between atoms: _58  and  _60
REMARK   27  A    between atoms: _60  and  _61
REMARK   28  A    between atoms: _60  and  _63
REMARK   29  A    between atoms: _63  and  _64
REMARK   30  A    between atoms: _66  and  _68
REMARK   31  A    between atoms: _68  and  _69
REMARK   32  A    between atoms: _68  and  _71
REMARK   33  A    between atoms: _71  and  _72
REMARK   34  A    between atoms: _78  and  _80
REMARK   35  A    between atoms: _80  and  _81
REMARK   36  A    between atoms: _80  and  _83
REMARK   37  A    between atoms: _86  and  _88
REMARK   38  A    between atoms: _88  and  _89
REMARK   39  A    between atoms: _88  and  _91
REMARK   40  A    between atoms: _91  and  _92
REMARK   41  A    between atoms: _102  and  _104
REMARK   42  A    between atoms: _104  and  _105
REMARK   43  A    between atoms: _104  and  _107
REMARK   44  A    between atoms: _107  and  _108
REMARK   45  A    between atoms: _111  and  _113
REMARK   46  A    between atoms: _113  and  _114
REMARK   47  A    between atoms: _113  and  _116
REMARK   48  A    between atoms: _116  and  _117
REMARK   49  A    between atoms: _122  and  _123
REMARK   50  A    between atoms: _125  and  _127
REMARK   51  A    between atoms: _127  and  _128
REMARK   52  A    between atoms: _131  and  _133
REMARK   53  A    between atoms: _133  and  _134
REMARK   54  A    between atoms: _133  and  _136
REMARK   55  A    between atoms: _139  and  _141
REMARK   56  A    between atoms: _141  and  _142
REMARK   57  A    between atoms: _141  and  _144
REMARK   58  A    between atoms: _146  and  _148
REMARK   59  A    between atoms: _148  and  _149
REMARK   60  A    between atoms: _148  and  _151
REMARK   61  A    between atoms: _151  and  _152
REMARK   62  A    between atoms: _152  and  _153
REMARK   63  A    between atoms: _153  and  _154
REMARK   64  A    between atoms: _163  and  _165
REMARK   65  A    between atoms: _165  and  _166
REMARK   66  A    between atoms: _165  and  _168
REMARK   67  A    between atoms: _168  and  _169
REMARK   68  A    between atoms: _169  and  _170
REMARK   69  A    between atoms: _170  and  _171
REMARK   70  A    between atoms: _171  and  _172
REMARK   71  A    between atoms: _176  and  _178
REMARK   72  A    between atoms: _178  and  _179
REMARK   73  A    between atoms: _178  and  _181
REMARK   74  A    between atoms: _181  and  _182
REMARK   75  A    between atoms: _185  and  _187
REMARK   76  A    between atoms: _187  and  _188
REMARK   77  A    between atoms: _187  and  _190
REMARK   78  A    between atoms: _190  and  _191
REMARK   79  A    between atoms: _194  and  _196
REMARK   80  A    between atoms: _196  and  _197
REMARK   81  A    between atoms: _196  and  _199
REMARK   82  A    between atoms: _199  and  _200
REMARK   83  A    between atoms: _203  and  _205
REMARK   84  A    between atoms: _205  and  _206
REMARK   85  A    between atoms: _205  and  _208
REMARK   86  A    between atoms: _208  and  _209
REMARK   87  A    between atoms: _212  and  _214
REMARK   88  A    between atoms: _214  and  _215
REMARK   89  A    between atoms: _214  and  _217
REMARK   90  A    between atoms: _219  and  _221
REMARK   91  A    between atoms: _221  and  _222
REMARK   92  A    between atoms: _221  and  _224
REMARK   93  A    between atoms: _227  and  _229
REMARK   94  A    between atoms: _229  and  _230
REMARK   95  A    between atoms: _233  and  _235
REMARK   96  A    between atoms: _235  and  _236
REMARK   97  A    between atoms: _238  and  _240
REMARK   98  A    between atoms: _240  and  _241
REMARK   99  A    between atoms: _240  and  _243
REMARK  100  A    between atoms: _243  and  _244
REMARK  101  A    between atoms: _247  and  _249
REMARK  102  A    between atoms: _249  and  _250
REMARK  103  A    between atoms: _249  and  _252
REMARK  104  A    between atoms: _255  and  _257
REMARK  105  A    between atoms: _257  and  _258
REMARK  106  A    between atoms: _260  and  _262
REMARK  107  A    between atoms: _262  and  _263
REMARK  108  A    between atoms: _262  and  _265
REMARK  109  A    between atoms: _265  and  _266
REMARK  110  A    between atoms: _266  and  _267
REMARK  111  A    between atoms: _270  and  _272
REMARK  112  A    between atoms: _272  and  _273
REMARK  113  A    between atoms: _272  and  _275
REMARK  114  A    between atoms: _278  and  _280
REMARK  115  A    between atoms: _280  and  _281
REMARK  116  A    between atoms: _280  and  _283
REMARK  117  A    between atoms: _283  and  _284
REMARK  118  A    between atoms: _287  and  _289
REMARK  119  A    between atoms: _289  and  _290
REMARK  120  A    between atoms: _289  and  _292
REMARK  121  A    between atoms: _292  and  _293
REMARK  122  A    between atoms: _296  and  _298
REMARK  123  A    between atoms: _298  and  _299
REMARK  124  A    between atoms: _298  and  _301
REMARK  125  A    between atoms: _301  and  _302
REMARK  126  A    between atoms: _305  and  _307
REMARK  127  A    between atoms: _307  and  _308
REMARK  128  A    between atoms: _307  and  _310
REMARK  129  A    between atoms: _310  and  _311
REMARK  130  A    between atoms: _314  and  _316
REMARK  131  A    between atoms: _316  and  _317
REMARK  132  A    between atoms: _316  and  _319
REMARK  133  A    between atoms: _319  and  _320
REMARK  134  A    between atoms: _325  and  _326
REMARK  135  A    between atoms: _328  and  _330
REMARK  136  A    between atoms: _330  and  _331
REMARK  137  A    between atoms: _330  and  _333
REMARK  138  A    between atoms: _336  and  _338
REMARK  139  A    between atoms: _338  and  _339
REMARK  140  A    between atoms: _342  and  _344
REMARK  141  A    between atoms: _344  and  _345
REMARK  142  A    between atoms: _344  and  _347
REMARK  143  A    between atoms: _347  and  _348
REMARK  144  A    between atoms: _348  and  _349
REMARK  145  A    between atoms: _349  and  _350
REMARK  146  A    between atoms: _359  and  _361
REMARK  147  A    between atoms: _361  and  _362
REMARK  148  A    between atoms: _361  and  _364
REMARK  149  A    between atoms: _364  and  _365
REMARK  150  A    between atoms: _365  and  _366
REMARK  151  A    between atoms: _366  and  _367
REMARK  152  A    between atoms: _376  and  _378
REMARK  153  A    between atoms: _378  and  _379
REMARK  154  A    between atoms: _378  and  _381
REMARK  155  A    between atoms: _381  and  _382
REMARK  156  A    between atoms: _385  and  _387
REMARK  157  A    between atoms: _387  and  _388
REMARK  158  A    between atoms: _390  and  _392
REMARK  159  A    between atoms: _392  and  _393
REMARK  160  A    between atoms: _392  and  _395
REMARK  161  A    between atoms: _395  and  _396
REMARK  162  A    between atoms: _396  and  _397
REMARK  163  A    between atoms: _400  and  _402
REMARK  164  A    between atoms: _402  and  _403
REMARK  165  A    between atoms: _402  and  _405
REMARK  166  A    between atoms: _405  and  _406
REMARK  167  A    between atoms: _408  and  _410
REMARK  168  A    between atoms: _410  and  _411
REMARK  169  A    between atoms: _410  and  _413
REMARK  170  A    between atoms: _413  and  _414
REMARK  171  A    between atoms: _417  and  _419
REMARK  172  A    between atoms: _419  and  _420
REMARK  173  A    between atoms: _419  and  _422
REMARK  174  A    between atoms: _422  and  _423
REMARK  175  A    between atoms: _423  and  _424
REMARK  176  A    between atoms: _429  and  _431
REMARK  177  A    between atoms: _431  and  _432
REMARK  178  A    between atoms: _431  and  _434
REMARK  179  A    between atoms: _434  and  _435
REMARK  180  A    between atoms: _438  and  _440
REMARK  181  A    between atoms: _440  and  _441
REMARK  182  A    between atoms: _440  and  _443
REMARK  183  A    between atoms: _443  and  _444
REMARK  184  A    between atoms: _449  and  _451
REMARK  185  A    between atoms: _451  and  _452
REMARK  186  A    between atoms: _451  and  _454
REMARK  187  A    between atoms: _457  and  _459
REMARK  188  A    between atoms: _459  and  _460
REMARK  189  A    between atoms: _459  and  _462
REMARK  190  A    between atoms: _462  and  _463
REMARK  191  A    between atoms: _466  and  _468
REMARK  192  A    between atoms: _468  and  _469
REMARK  193  A    between atoms: _468  and  _471
REMARK  194  A    between atoms: _474  and  _476
REMARK  195  A    between atoms: _476  and  _477
REMARK  196  A    between atoms: _476  and  _479
REMARK  197  A    between atoms: _479  and  _480
REMARK  198  A    between atoms: _486  and  _488
REMARK  199  A    between atoms: _488  and  _489
REMARK  200  A    between atoms: _492  and  _494
REMARK  201  A    between atoms: _494  and  _495
REMARK  202  A    between atoms: _494  and  _497
REMARK  203  A    between atoms: _497  and  _498
REMARK  204  A    between atoms: _501  and  _503
REMARK  205  A    between atoms: _503  and  _504
REMARK  206  A    between atoms: _503  and  _506
REMARK  207  A    between atoms: _506  and  _507
REMARK  208  A    between atoms: _510  and  _512
REMARK  209  A    between atoms: _512  and  _513
REMARK  210  A    between atoms: _512  and  _515
REMARK  211  A    between atoms: _515  and  _516
REMARK  212  A    between atoms: _516  and  _517
REMARK  213  A    between atoms: _520  and  _522
REMARK  214  A    between atoms: _522  and  _523
REMARK  215  A    between atoms: _526  and  _528
REMARK  216  A    between atoms: _528  and  _529
REMARK  217  A    between atoms: _532  and  _534
REMARK  218  A    between atoms: _534  and  _535
REMARK  219  A    between atoms: _534  and  _537
REMARK  220  A    between atoms: _537  and  _538
REMARK  221  A    between atoms: _543  and  _544
REMARK                            x       y       z     vdW  Elec       q    Type
REMARK                         _______ _______ _______ _____ _____    ______ ____
ROOT
ATOM      1  O   HOH     1      52.610   7.411  49.767  0.00  0.00    +0.000 OA
ENDROOT
TORSDOF 0
REMARK  Name = ../refined-set-2016/3acx/3acx_pocket.pdb
REMARK  221 active torsions:
REMARK  status: ('A' for Active; 'I' for Inactive)
REMARK    1  A    between atoms: _1  and  _3
REMARK    2  A    between atoms: _3  and  _4
REMARK    3  A    between atoms: _3  and  _6
REMARK    4  A    between atoms: _6  and  _7
REMARK    5  A    between atoms: _10  and  _12
REMARK    6  A    between atoms: _12  and  _13
REMARK    7  A    between atoms: _12  and  _15
REMARK    8  A    between atoms: _15  and  _16
REMARK    9  A    between atoms: _16  and  _17
REMARK   10  A    between atoms: _19  and  _21
REMARK   11  A    between atoms: _21  and  _22
REMARK   12  A    between atoms: _21  and  _24
REMARK   13  A    between atoms: _24  and  _25
REMARK   14  A    between atoms: _30  and  _32
REMARK   15  A    between atoms: _32  and  _33
REMARK   16  A    between atoms: _32  and  _35
REMARK   17  A    between atoms: _35  and  _36
REMARK   18  A    between atoms: _38  and  _40
REMARK   19  A    between atoms: _40  and  _41
REMARK   20  A    between atoms: _40  and  _43
REMARK   21  A    between atoms: _43  and  _44
REMARK   22  A    between atoms: _46  and  _48
REMARK   23  A    between atoms: _48  and  _49
REMARK   24  A    between atoms: _48  and  _51
REMARK   25  A    between atoms: _51  and  _52
REMARK   26  A    between atoms: _58  and  _60
REMARK   27  A    between atoms: _60  and  _61
REMARK   28  A    between atoms: _60  and  _63
REMARK   29  A    between atoms: _63  and  _64
REMARK   30  A    between atoms: _66  and  _68
REMARK   31  A    between atoms: _68  and  _69
REMARK   32  A    between atoms: _68  and  _71
REMARK   33  A    between atoms: _71  and  _72
REMARK   34  A    between atoms: _78  and  _80
REMARK   35  A    between atoms: _80  and  _81
REMARK   36  A    between atoms: _80  and  _83
REMARK   37  A    between atoms: _86  and  _88
REMARK   38  A    between atoms: _88  and  _89
REMARK   39  A    between atoms: _88  and  _91
REMARK   40  A    between atoms: _91  and  _92
REMARK   41  A    between atoms: _102  and  _104
REMARK   42  A    between atoms: _104  and  _105
REMARK   43  A    between atoms: _104  and  _107
REMARK   44  A    between atoms: _107  and  _108
REMARK   45  A    between atoms: _111  and  _113
REMARK   46  A    between atoms: _113  and  _114
REMARK   47  A    between atoms: _113  and  _116
REMARK   48  A    between atoms: _116  and  _117
REMARK   49  A    between atoms: _122  and  _123
REMARK   50  A    between atoms: _125  and  _127
REMARK   51  A    between atoms: _127  and  _128
REMARK   52  A    between atoms: _131  and  _133
REMARK   53  A    between atoms: _133  and  _134
REMARK   54  A    between atoms: _133  and  _136
REMARK   55  A    between atoms: _139  and  _141
REMARK   56  A    between atoms: _141  and  _142
REMARK   57  A    between atoms: _141  and  _144
REMARK   58  A    between atoms: _146  and  _148
REMARK   59  A    between atoms: _148  and  _149
REMARK   60  A    between atoms: _148  and  _151
REMARK   61  A    between atoms: _151  and  _152
REMARK   62  A    between atoms: _152  and  _153
REMARK   63  A    between atoms: _153  and  _154
REMARK   64  A    between atoms: _163  and  _165
REMARK   65  A    between atoms: _165  and  _166
REMARK   66  A    between atoms: _165  and  _168
REMARK   67  A    between atoms: _168  and  _169
REMARK   68  A    between atoms: _169  and  _170
REMARK   69  A    between atoms: _170  and  _171
REMARK   70  A    between atoms: _171  and  _172
REMARK   71  A    between atoms: _176  and  _178
REMARK   72  A    between atoms: _178  and  _179
REMARK   73  A    between atoms: _178  and  _181
REMARK   74  A    between atoms: _181  and  _182
REMARK   75  A    between atoms: _185  and  _187
REMARK   76  A    between atoms: _187  and  _188
REMARK   77  A    between atoms: _187  and  _190
REMARK   78  A    between atoms: _190  and  _191
REMARK   79  A    between atoms: _194  and  _196
REMARK   80  A    between atoms: _196  and  _197
REMARK   81  A    between atoms: _196  and  _199
REMARK   82  A    between atoms: _199  and  _200
REMARK   83  A    between atoms: _203  and  _205
REMARK   84  A    between atoms: _205  and  _206
REMARK   85  A    between atoms: _205  and  _208
REMARK   86  A    between atoms: _208  and  _209
REMARK   87  A    between atoms: _212  and  _214
REMARK   88  A    between atoms: _214  and  _215
REMARK   89  A    between atoms: _214  and  _217
REMARK   90  A    between atoms: _219  and  _221
REMARK   91  A    between atoms: _221  and  _222
REMARK   92  A    between atoms: _221  and  _224
REMARK   93  A    between atoms: _227  and  _229
REMARK   94  A    between atoms: _229  and  _230
REMARK   95  A    between atoms: _233  and  _235
REMARK   96  A    between atoms: _235  and  _236
REMARK   97  A    between atoms: _238  and  _240
REMARK   98  A    between atoms: _240  and  _241
REMARK   99  A    between atoms: _240  and  _243
REMARK  100  A    between atoms: _243  and  _244
REMARK  101  A    between atoms: _247  and  _249
REMARK  102  A    between atoms: _249  and  _250
REMARK  103  A    between atoms: _249  and  _252
REMARK  104  A    between atoms: _255  and  _257
REMARK  105  A    between atoms: _257  and  _258
REMARK  106  A    between atoms: _260  and  _262
REMARK  107  A    between atoms: _262  and  _263
REMARK  108  A    between atoms: _262  and  _265
REMARK  109  A    between atoms: _265  and  _266
REMARK  110  A    between atoms: _266  and  _267
REMARK  111  A    between atoms: _270  and  _272
REMARK  112  A    between atoms: _272  and  _273
REMARK  113  A    between atoms: _272  and  _275
REMARK  114  A    between atoms: _278  and  _280
REMARK  115  A    between atoms: _280  and  _281
REMARK  116  A    between atoms: _280  and  _283
REMARK  117  A    between atoms: _283  and  _284
REMARK  118  A    between atoms: _287  and  _289
REMARK  119  A    between atoms: _289  and  _290
REMARK  120  A    between atoms: _289  and  _292
REMARK  121  A    between atoms: _292  and  _293
REMARK  122  A    between atoms: _296  and  _298
REMARK  123  A    between atoms: _298  and  _299
REMARK  124  A    between atoms: _298  and  _301
REMARK  125  A    between atoms: _301  and  _302
REMARK  126  A    between atoms: _305  and  _307
REMARK  127  A    between atoms: _307  and  _308
REMARK  128  A    between atoms: _307  and  _310
REMARK  129  A    between atoms: _310  and  _311
REMARK  130  A    between atoms: _314  and  _316
REMARK  131  A    between atoms: _316  and  _317
REMARK  132  A    between atoms: _316  and  _319
REMARK  133  A    between atoms: _319  and  _320
REMARK  134  A    between atoms: _325  and  _326
REMARK  135  A    between atoms: _328  and  _330
REMARK  136  A    between atoms: _330  and  _331
REMARK  137  A    between atoms: _330  and  _333
REMARK  138  A    between atoms: _336  and  _338
REMARK  139  A    between atoms: _338  and  _339
REMARK  140  A    between atoms: _342  and  _344
REMARK  141  A    between atoms: _344  and  _345
REMARK  142  A    between atoms: _344  and  _347
REMARK  143  A    between atoms: _347  and  _348
REMARK  144  A    between atoms: _348  and  _349
REMARK  145  A    between atoms: _349  and  _350
REMARK  146  A    between atoms: _359  and  _361
REMARK  147  A    between atoms: _361  and  _362
REMARK  148  A    between atoms: _361  and  _364
REMARK  149  A    between atoms: _364  and  _365
REMARK  150  A    between atoms: _365  and  _366
REMARK  151  A    between atoms: _366  and  _367
REMARK  152  A    between atoms: _376  and  _378
REMARK  153  A    between atoms: _378  and  _379
REMARK  154  A    between atoms: _378  and  _381
REMARK  155  A    between atoms: _381  and  _382
REMARK  156  A    between atoms: _385  and  _387
REMARK  157  A    between atoms: _387  and  _388
REMARK  158  A    between atoms: _390  and  _392
REMARK  159  A    between atoms: _392  and  _393
REMARK  160  A    between atoms: _392  and  _395
REMARK  161  A    between atoms: _395  and  _396
REMARK  162  A    between atoms: _396  and  _397
REMARK  163  A    between atoms: _400  and  _402
REMARK  164  A    between atoms: _402  and  _403
REMARK  165  A    between atoms: _402  and  _405
REMARK  166  A    between atoms: _405  and  _406
REMARK  167  A    between atoms: _408  and  _410
REMARK  168  A    between atoms: _410  and  _411
REMARK  169  A    between atoms: _410  and  _413
REMARK  170  A    between atoms: _413  and  _414
REMARK  171  A    between atoms: _417  and  _419
REMARK  172  A    between atoms: _419  and  _420
REMARK  173  A    between atoms: _419  and  _422
REMARK  174  A    between atoms: _422  and  _423
REMARK  175  A    between atoms: _423  and  _424
REMARK  176  A    between atoms: _429  and  _431
REMARK  177  A    between atoms: _431  and  _432
REMARK  178  A    between atoms: _431  and  _434
REMARK  179  A    between atoms: _434  and  _435
REMARK  180  A    between atoms: _438  and  _440
REMARK  181  A    between atoms: _440  and  _441
REMARK  182  A    between atoms: _440  and  _443
REMARK  183  A    between atoms: _443  and  _444
REMARK  184  A    between atoms: _449  and  _451
REMARK  185  A    between atoms: _451  and  _452
REMARK  186  A    between atoms: _451  and  _454
REMARK  187  A    between atoms: _457  and  _459
REMARK  188  A    between atoms: _459  and  _460
REMARK  189  A    between atoms: _459  and  _462
REMARK  190  A    between atoms: _462  and  _463
REMARK  191  A    between atoms: _466  and  _468
REMARK  192  A    between atoms: _468  and  _469
REMARK  193  A    between atoms: _468  and  _471
REMARK  194  A    between atoms: _474  and  _476
REMARK  195  A    between atoms: _476  and  _477
REMARK  196  A    between atoms: _476  and  _479
REMARK  197  A    between atoms: _479  and  _480
REMARK  198  A    between atoms: _486  and  _488
REMARK  199  A    between atoms: _488  and  _489
REMARK  200  A    between atoms: _492  and  _494
REMARK  201  A    between atoms: _494  and  _495
REMARK  202  A    between atoms: _494  and  _497
REMARK  203  A    between atoms: _497  and  _498
REMARK  204  A    between atoms: _501  and  _503
REMARK  205  A    between atoms: _503  and  _504
REMARK  206  A    between atoms: _503  and  _506
REMARK  207  A    between atoms: _506  and  _507
REMARK  208  A    between atoms: _510  and  _512
REMARK  209  A    between atoms: _512  and  _513
REMARK  210  A    between atoms: _512  and  _515
REMARK  211  A    between atoms: _515  and  _516
REMARK  212  A    between atoms: _516  and  _517
REMARK  213  A    between atoms: _520  and  _522
REMARK  214  A    between atoms: _522  and  _523
REMARK  215  A    between atoms: _526  and  _528
REMARK  216  A    between atoms: _528  and  _529
REMARK  217  A    between atoms: _532  and  _534
REMARK  218  A    between atoms: _534  and  _535
REMARK  219  A    between atoms: _534  and  _537
REMARK  220  A    between atoms: _537  and  _538
REMARK  221  A    between atoms: _543  and  _544
REMARK                            x       y       z     vdW  Elec       q    Type
REMARK                         _______ _______ _______ _____ _____    ______ ____
ROOT
ATOM      1  O   HOH     1      58.115   4.133  56.809  0.00  0.00    +0.000 OA
ENDROOT
TORSDOF 0
REMARK  Name = ../refined-set-2016/3acx/3acx_pocket.pdb
REMARK  221 active torsions:
REMARK  status: ('A' for Active; 'I' for Inactive)
REMARK    1  A    between atoms: _1  and  _3
REMARK    2  A    between atoms: _3  and  _4
REMARK    3  A    between atoms: _3  and  _6
REMARK    4  A    between atoms: _6  and  _7
REMARK    5  A    between atoms: _10  and  _12
REMARK    6  A    between atoms: _12  and  _13
REMARK    7  A    between atoms: _12  and  _15
REMARK    8  A    between atoms: _15  and  _16
REMARK    9  A    between atoms: _16  and  _17
REMARK   10  A    between atoms: _19  and  _21
REMARK   11  A    between atoms: _21  and  _22
REMARK   12  A    between atoms: _21  and  _24
REMARK   13  A    between atoms: _24  and  _25
REMARK   14  A    between atoms: _30  and  _32
REMARK   15  A    between atoms: _32  and  _33
REMARK   16  A    between atoms: _32  and  _35
REMARK   17  A    between atoms: _35  and  _36
REMARK   18  A    between atoms: _38  and  _40
REMARK   19  A    between atoms: _40  and  _41
REMARK   20  A    between atoms: _40  and  _43
REMARK   21  A    between atoms: _43  and  _44
REMARK   22  A    between atoms: _46  and  _48
REMARK   23  A    between atoms: _48  and  _49
REMARK   24  A    between atoms: _48  and  _51
REMARK   25  A    between atoms: _51  and  _52
REMARK   26  A    between atoms: _58  and  _60
REMARK   27  A    between atoms: _60  and  _61
REMARK   28  A    between atoms: _60  and  _63
REMARK   29  A    between atoms: _63  and  _64
REMARK   30  A    between atoms: _66  and  _68
REMARK   31  A    between atoms: _68  and  _69
REMARK   32  A    between atoms: _68  and  _71
REMARK   33  A    between atoms: _71  and  _72
REMARK   34  A    between atoms: _78  and  _80
REMARK   35  A    between atoms: _80  and  _81
REMARK   36  A    between atoms: _80  and  _83
REMARK   37  A    between atoms: _86  and  _88
REMARK   38  A    between atoms: _88  and  _89
REMARK   39  A    between atoms: _88  and  _91
REMARK   40  A    between atoms: _91  and  _92
REMARK   41  A    between atoms: _102  and  _104
REMARK   42  A    between atoms: _104  and  _105
REMARK   43  A    between atoms: _104  and  _107
REMARK   44  A    between atoms: _107  and  _108
REMARK   45  A    between atoms: _111  and  _113
REMARK   46  A    between atoms: _113  and  _114
REMARK   47  A    between atoms: _113  and  _116
REMARK   48  A    between atoms: _116  and  _117
REMARK   49  A    between atoms: _122  and  _123
REMARK   50  A    between atoms: _125  and  _127
REMARK   51  A    between atoms: _127  and  _128
REMARK   52  A    between atoms: _131  and  _133
REMARK   53  A    between atoms: _133  and  _134
REMARK   54  A    between atoms: _133  and  _136
REMARK   55  A    between atoms: _139  and  _141
REMARK   56  A    between atoms: _141  and  _142
REMARK   57  A    between atoms: _141  and  _144
REMARK   58  A    between atoms: _146  and  _148
REMARK   59  A    between atoms: _148  and  _149
REMARK   60  A    between atoms: _148  and  _151
REMARK   61  A    between atoms: _151  and  _152
REMARK   62  A    between atoms: _152  and  _153
REMARK   63  A    between atoms: _153  and  _154
REMARK   64  A    between atoms: _163  and  _165
REMARK   65  A    between atoms: _165  and  _166
REMARK   66  A    between atoms: _165  and  _168
REMARK   67  A    between atoms: _168  and  _169
REMARK   68  A    between atoms: _169  and  _170
REMARK   69  A    between atoms: _170  and  _171
REMARK   70  A    between atoms: _171  and  _172
REMARK   71  A    between atoms: _176  and  _178
REMARK   72  A    between atoms: _178  and  _179
REMARK   73  A    between atoms: _178  and  _181
REMARK   74  A    between atoms: _181  and  _182
REMARK   75  A    between atoms: _185  and  _187
REMARK   76  A    between atoms: _187  and  _188
REMARK   77  A    between atoms: _187  and  _190
REMARK   78  A    between atoms: _190  and  _191
REMARK   79  A    between atoms: _194  and  _196
REMARK   80  A    between atoms: _196  and  _197
REMARK   81  A    between atoms: _196  and  _199
REMARK   82  A    between atoms: _199  and  _200
REMARK   83  A    between atoms: _203  and  _205
REMARK   84  A    between atoms: _205  and  _206
REMARK   85  A    between atoms: _205  and  _208
REMARK   86  A    between atoms: _208  and  _209
REMARK   87  A    between atoms: _212  and  _214
REMARK   88  A    between atoms: _214  and  _215
REMARK   89  A    between atoms: _214  and  _217
REMARK   90  A    between atoms: _219  and  _221
REMARK   91  A    between atoms: _221  and  _222
REMARK   92  A    between atoms: _221  and  _224
REMARK   93  A    between atoms: _227  and  _229
REMARK   94  A    between atoms: _229  and  _230
REMARK   95  A    between atoms: _233  and  _235
REMARK   96  A    between atoms: _235  and  _236
REMARK   97  A    between atoms: _238  and  _240
REMARK   98  A    between atoms: _240  and  _241
REMARK   99  A    between atoms: _240  and  _243
REMARK  100  A    between atoms: _243  and  _244
REMARK  101  A    between atoms: _247  and  _249
REMARK  102  A    between atoms: _249  and  _250
REMARK  103  A    between atoms: _249  and  _252
REMARK  104  A    between atoms: _255  and  _257
REMARK  105  A    between atoms: _257  and  _258
REMARK  106  A    between atoms: _260  and  _262
REMARK  107  A    between atoms: _262  and  _263
REMARK  108  A    between atoms: _262  and  _265
REMARK  109  A    between atoms: _265  and  _266
REMARK  110  A    between atoms: _266  and  _267
REMARK  111  A    between atoms: _270  and  _272
REMARK  112  A    between atoms: _272  and  _273
REMARK  113  A    between atoms: _272  and  _275
REMARK  114  A    between atoms: _278  and  _280
REMARK  115  A    between atoms: _280  and  _281
REMARK  116  A    between atoms: _280  and  _283
REMARK  117  A    between atoms: _283  and  _284
REMARK  118  A    between atoms: _287  and  _289
REMARK  119  A    between atoms: _289  and  _290
REMARK  120  A    between atoms: _289  and  _292
REMARK  121  A    between atoms: _292  and  _293
REMARK  122  A    between atoms: _296  and  _298
REMARK  123  A    between atoms: _298  and  _299
REMARK  124  A    between atoms: _298  and  _301
REMARK  125  A    between atoms: _301  and  _302
REMARK  126  A    between atoms: _305  and  _307
REMARK  127  A    between atoms: _307  and  _308
REMARK  128  A    between atoms: _307  and  _310
REMARK  129  A    between atoms: _310  and  _311
REMARK  130  A    between atoms: _314  and  _316
REMARK  131  A    between atoms: _316  and  _317
REMARK  132  A    between atoms: _316  and  _319
REMARK  133  A    between atoms: _319  and  _320
REMARK  134  A    between atoms: _325  and  _326
REMARK  135  A    between atoms: _328  and  _330
REMARK  136  A    between atoms: _330  and  _331
REMARK  137  A    between atoms: _330  and  _333
REMARK  138  A    between atoms: _336  and  _338
REMARK  139  A    between atoms: _338  and  _339
REMARK  140  A    between atoms: _342  and  _344
REMARK  141  A    between atoms: _344  and  _345
REMARK  142  A    between atoms: _344  and  _347
REMARK  143  A    between atoms: _347  and  _348
REMARK  144  A    between atoms: _348  and  _349
REMARK  145  A    between atoms: _349  and  _350
REMARK  146  A    between atoms: _359  and  _361
REMARK  147  A    between atoms: _361  and  _362
REMARK  148  A    between atoms: _361  and  _364
REMARK  149  A    between atoms: _364  and  _365
REMARK  150  A    between atoms: _365  and  _366
REMARK  151  A    between atoms: _366  and  _367
REMARK  152  A    between atoms: _376  and  _378
REMARK  153  A    between atoms: _378  and  _379
REMARK  154  A    between atoms: _378  and  _381
REMARK  155  A    between atoms: _381  and  _382
REMARK  156  A    between atoms: _385  and  _387
REMARK  157  A    between atoms: _387  and  _388
REMARK  158  A    between atoms: _390  and  _392
REMARK  159  A    between atoms: _392  and  _393
REMARK  160  A    between atoms: _392  and  _395
REMARK  161  A    between atoms: _395  and  _396
REMARK  162  A    between atoms: _396  and  _397
REMARK  163  A    between atoms: _400  and  _402
REMARK  164  A    between atoms: _402  and  _403
REMARK  165  A    between atoms: _402  and  _405
REMARK  166  A    between atoms: _405  and  _406
REMARK  167  A    between atoms: _408  and  _410
REMARK  168  A    between atoms: _410  and  _411
REMARK  169  A    between atoms: _410  and  _413
REMARK  170  A    between atoms: _413  and  _414
REMARK  171  A    between atoms: _417  and  _419
REMARK  172  A    between atoms: _419  and  _420
REMARK  173  A    between atoms: _419  and  _422
REMARK  174  A    between atoms: _422  and  _423
REMARK  175  A    between atoms: _423  and  _424
REMARK  176  A    between atoms: _429  and  _431
REMARK  177  A    between atoms: _431  and  _432
REMARK  178  A    between atoms: _431  and  _434
REMARK  179  A    between atoms: _434  and  _435
REMARK  180  A    between atoms: _438  and  _440
REMARK  181  A    between atoms: _440  and  _441
REMARK  182  A    between atoms: _440  and  _443
REMARK  183  A    between atoms: _443  and  _444
REMARK  184  A    between atoms: _449  and  _451
REMARK  185  A    between atoms: _451  and  _452
REMARK  186  A    between atoms: _451  and  _454
REMARK  187  A    between atoms: _457  and  _459
REMARK  188  A    between atoms: _459  and  _460
REMARK  189  A    between atoms: _459  and  _462
REMARK  190  A    between atoms: _462  and  _463
REMARK  191  A    between atoms: _466  and  _468
REMARK  192  A    between atoms: _468  and  _469
REMARK  193  A    between atoms: _468  and  _471
REMARK  194  A    between atoms: _474  and  _476
REMARK  195  A    between atoms: _476  and  _477
REMARK  196  A    between atoms: _476  and  _479
REMARK  197  A    between atoms: _479  and  _480
REMARK  198  A    between atoms: _486  and  _488
REMARK  199  A    between atoms: _488  and  _489
REMARK  200  A    between atoms: _492  and  _494
REMARK  201  A    between atoms: _494  and  _495
REMARK  202  A    between atoms: _494  and  _497
REMARK  203  A    between atoms: _497  and  _498
REMARK  204  A    between atoms: _501  and  _503
REMARK  205  A    between atoms: _503  and  _504
REMARK  206  A    between atoms: _503  and  _506
REMARK  207  A    between atoms: _506  and  _507
REMARK  208  A    between atoms: _510  and  _512
REMARK  209  A    between atoms: _512  and  _513
REMARK  210  A    between atoms: _512  and  _515
REMARK  211  A    between atoms: _515  and  _516
REMARK  212  A    between atoms: _516  and  _517
REMARK  213  A    between atoms: _520  and  _522
REMARK  214  A    between atoms: _522  and  _523
REMARK  215  A    between atoms: _526  and  _528
REMARK  216  A    between atoms: _528  and  _529
REMARK  217  A    between atoms: _532  and  _534
REMARK  218  A    between atoms: _534  and  _535
REMARK  219  A    between atoms: _534  and  _537
REMARK  220  A    between atoms: _537  and  _538
REMARK  221  A    between atoms: _543  and  _544
REMARK                            x       y       z     vdW  Elec       q    Type
REMARK                         _______ _______ _______ _____ _____    ______ ____
ROOT
ATOM      1  O   HOH     1      50.576   1.836  52.659  0.00  0.00    +0.000 OA
ENDROOT
TORSDOF 0
REMARK  Name = ../refined-set-2016/3acx/3acx_pocket.pdb
REMARK  221 active torsions:
REMARK  status: ('A' for Active; 'I' for Inactive)
REMARK    1  A    between atoms: _1  and  _3
REMARK    2  A    between atoms: _3  and  _4
REMARK    3  A    between atoms: _3  and  _6
REMARK    4  A    between atoms: _6  and  _7
REMARK    5  A    between atoms: _10  and  _12
REMARK    6  A    between atoms: _12  and  _13
REMARK    7  A    between atoms: _12  and  _15
REMARK    8  A    between atoms: _15  and  _16
REMARK    9  A    between atoms: _16  and  _17
REMARK   10  A    between atoms: _19  and  _21
REMARK   11  A    between atoms: _21  and  _22
REMARK   12  A    between atoms: _21  and  _24
REMARK   13  A    between atoms: _24  and  _25
REMARK   14  A    between atoms: _30  and  _32
REMARK   15  A    between atoms: _32  and  _33
REMARK   16  A    between atoms: _32  and  _35
REMARK   17  A    between atoms: _35  and  _36
REMARK   18  A    between atoms: _38  and  _40
REMARK   19  A    between atoms: _40  and  _41
REMARK   20  A    between atoms: _40  and  _43
REMARK   21  A    between atoms: _43  and  _44
REMARK   22  A    between atoms: _46  and  _48
REMARK   23  A    between atoms: _48  and  _49
REMARK   24  A    between atoms: _48  and  _51
REMARK   25  A    between atoms: _51  and  _52
REMARK   26  A    between atoms: _58  and  _60
REMARK   27  A    between atoms: _60  and  _61
REMARK   28  A    between atoms: _60  and  _63
REMARK   29  A    between atoms: _63  and  _64
REMARK   30  A    between atoms: _66  and  _68
REMARK   31  A    between atoms: _68  and  _69
REMARK   32  A    between atoms: _68  and  _71
REMARK   33  A    between atoms: _71  and  _72
REMARK   34  A    between atoms: _78  and  _80
REMARK   35  A    between atoms: _80  and  _81
REMARK   36  A    between atoms: _80  and  _83
REMARK   37  A    between atoms: _86  and  _88
REMARK   38  A    between atoms: _88  and  _89
REMARK   39  A    between atoms: _88  and  _91
REMARK   40  A    between atoms: _91  and  _92
REMARK   41  A    between atoms: _102  and  _104
REMARK   42  A    between atoms: _104  and  _105
REMARK   43  A    between atoms: _104  and  _107
REMARK   44  A    between atoms: _107  and  _108
REMARK   45  A    between atoms: _111  and  _113
REMARK   46  A    between atoms: _113  and  _114
REMARK   47  A    between atoms: _113  and  _116
REMARK   48  A    between atoms: _116  and  _117
REMARK   49  A    between atoms: _122  and  _123
REMARK   50  A    between atoms: _125  and  _127
REMARK   51  A    between atoms: _127  and  _128
REMARK   52  A    between atoms: _131  and  _133
REMARK   53  A    between atoms: _133  and  _134
REMARK   54  A    between atoms: _133  and  _136
REMARK   55  A    between atoms: _139  and  _141
REMARK   56  A    between atoms: _141  and  _142
REMARK   57  A    between atoms: _141  and  _144
REMARK   58  A    between atoms: _146  and  _148
REMARK   59  A    between atoms: _148  and  _149
REMARK   60  A    between atoms: _148  and  _151
REMARK   61  A    between atoms: _151  and  _152
REMARK   62  A    between atoms: _152  and  _153
REMARK   63  A    between atoms: _153  and  _154
REMARK   64  A    between atoms: _163  and  _165
REMARK   65  A    between atoms: _165  and  _166
REMARK   66  A    between atoms: _165  and  _168
REMARK   67  A    between atoms: _168  and  _169
REMARK   68  A    between atoms: _169  and  _170
REMARK   69  A    between atoms: _170  and  _171
REMARK   70  A    between atoms: _171  and  _172
REMARK   71  A    between atoms: _176  and  _178
REMARK   72  A    between atoms: _178  and  _179
REMARK   73  A    between atoms: _178  and  _181
REMARK   74  A    between atoms: _181  and  _182
REMARK   75  A    between atoms: _185  and  _187
REMARK   76  A    between atoms: _187  and  _188
REMARK   77  A    between atoms: _187  and  _190
REMARK   78  A    between atoms: _190  and  _191
REMARK   79  A    between atoms: _194  and  _196
REMARK   80  A    between atoms: _196  and  _197
REMARK   81  A    between atoms: _196  and  _199
REMARK   82  A    between atoms: _199  and  _200
REMARK   83  A    between atoms: _203  and  _205
REMARK   84  A    between atoms: _205  and  _206
REMARK   85  A    between atoms: _205  and  _208
REMARK   86  A    between atoms: _208  and  _209
REMARK   87  A    between atoms: _212  and  _214
REMARK   88  A    between atoms: _214  and  _215
REMARK   89  A    between atoms: _214  and  _217
REMARK   90  A    between atoms: _219  and  _221
REMARK   91  A    between atoms: _221  and  _222
REMARK   92  A    between atoms: _221  and  _224
REMARK   93  A    between atoms: _227  and  _229
REMARK   94  A    between atoms: _229  and  _230
REMARK   95  A    between atoms: _233  and  _235
REMARK   96  A    between atoms: _235  and  _236
REMARK   97  A    between atoms: _238  and  _240
REMARK   98  A    between atoms: _240  and  _241
REMARK   99  A    between atoms: _240  and  _243
REMARK  100  A    between atoms: _243  and  _244
REMARK  101  A    between atoms: _247  and  _249
REMARK  102  A    between atoms: _249  and  _250
REMARK  103  A    between atoms: _249  and  _252
REMARK  104  A    between atoms: _255  and  _257
REMARK  105  A    between atoms: _257  and  _258
REMARK  106  A    between atoms: _260  and  _262
REMARK  107  A    between atoms: _262  and  _263
REMARK  108  A    between atoms: _262  and  _265
REMARK  109  A    between atoms: _265  and  _266
REMARK  110  A    between atoms: _266  and  _267
REMARK  111  A    between atoms: _270  and  _272
REMARK  112  A    between atoms: _272  and  _273
REMARK  113  A    between atoms: _272  and  _275
REMARK  114  A    between atoms: _278  and  _280
REMARK  115  A    between atoms: _280  and  _281
REMARK  116  A    between atoms: _280  and  _283
REMARK  117  A    between atoms: _283  and  _284
REMARK  118  A    between atoms: _287  and  _289
REMARK  119  A    between atoms: _289  and  _290
REMARK  120  A    between atoms: _289  and  _292
REMARK  121  A    between atoms: _292  and  _293
REMARK  122  A    between atoms: _296  and  _298
REMARK  123  A    between atoms: _298  and  _299
REMARK  124  A    between atoms: _298  and  _301
REMARK  125  A    between atoms: _301  and  _302
REMARK  126  A    between atoms: _305  and  _307
REMARK  127  A    between atoms: _307  and  _308
REMARK  128  A    between atoms: _307  and  _310
REMARK  129  A    between atoms: _310  and  _311
REMARK  130  A    between atoms: _314  and  _316
REMARK  131  A    between atoms: _316  and  _317
REMARK  132  A    between atoms: _316  and  _319
REMARK  133  A    between atoms: _319  and  _320
REMARK  134  A    between atoms: _325  and  _326
REMARK  135  A    between atoms: _328  and  _330
REMARK  136  A    between atoms: _330  and  _331
REMARK  137  A    between atoms: _330  and  _333
REMARK  138  A    between atoms: _336  and  _338
REMARK  139  A    between atoms: _338  and  _339
REMARK  140  A    between atoms: _342  and  _344
REMARK  141  A    between atoms: _344  and  _345
REMARK  142  A    between atoms: _344  and  _347
REMARK  143  A    between atoms: _347  and  _348
REMARK  144  A    between atoms: _348  and  _349
REMARK  145  A    between atoms: _349  and  _350
REMARK  146  A    between atoms: _359  and  _361
REMARK  147  A    between atoms: _361  and  _362
REMARK  148  A    between atoms: _361  and  _364
REMARK  149  A    between atoms: _364  and  _365
REMARK  150  A    between atoms: _365  and  _366
REMARK  151  A    between atoms: _366  and  _367
REMARK  152  A    between atoms: _376  and  _378
REMARK  153  A    between atoms: _378  and  _379
REMARK  154  A    between atoms: _378  and  _381
REMARK  155  A    between atoms: _381  and  _382
REMARK  156  A    between atoms: _385  and  _387
REMARK  157  A    between atoms: _387  and  _388
REMARK  158  A    between atoms: _390  and  _392
REMARK  159  A    between atoms: _392  and  _393
REMARK  160  A    between atoms: _392  and  _395
REMARK  161  A    between atoms: _395  and  _396
REMARK  162  A    between atoms: _396  and  _397
REMARK  163  A    between atoms: _400  and  _402
REMARK  164  A    between atoms: _402  and  _403
REMARK  165  A    between atoms: _402  and  _405
REMARK  166  A    between atoms: _405  and  _406
REMARK  167  A    between atoms: _408  and  _410
REMARK  168  A    between atoms: _410  and  _411
REMARK  169  A    between atoms: _410  and  _413
REMARK  170  A    between atoms: _413  and  _414
REMARK  171  A    between atoms: _417  and  _419
REMARK  172  A    between atoms: _419  and  _420
REMARK  173  A    between atoms: _419  and  _422
REMARK  174  A    between atoms: _422  and  _423
REMARK  175  A    between atoms: _423  and  _424
REMARK  176  A    between atoms: _429  and  _431
REMARK  177  A    between atoms: _431  and  _432
REMARK  178  A    between atoms: _431  and  _434
REMARK  179  A    between atoms: _434  and  _435
REMARK  180  A    between atoms: _438  and  _440
REMARK  181  A    between atoms: _440  and  _441
REMARK  182  A    between atoms: _440  and  _443
REMARK  183  A    between atoms: _443  and  _444
REMARK  184  A    between atoms: _449  and  _451
REMARK  185  A    between atoms: _451  and  _452
REMARK  186  A    between atoms: _451  and  _454
REMARK  187  A    between atoms: _457  and  _459
REMARK  188  A    between atoms: _459  and  _460
REMARK  189  A    between atoms: _459  and  _462
REMARK  190  A    between atoms: _462  and  _463
REMARK  191  A    between atoms: _466  and  _468
REMARK  192  A    between atoms: _468  and  _469
REMARK  193  A    between atoms: _468  and  _471
REMARK  194  A    between atoms: _474  and  _476
REMARK  195  A    between atoms: _476  and  _477
REMARK  196  A    between atoms: _476  and  _479
REMARK  197  A    between atoms: _479  and  _480
REMARK  198  A    between atoms: _486  and  _488
REMARK  199  A    between atoms: _488  and  _489
REMARK  200  A    between atoms: _492  and  _494
REMARK  201  A    between atoms: _494  and  _495
REMARK  202  A    between atoms: _494  and  _497
REMARK  203  A    between atoms: _497  and  _498
REMARK  204  A    between atoms: _501  and  _503
REMARK  205  A    between atoms: _503  and  _504
REMARK  206  A    between atoms: _503  and  _506
REMARK  207  A    between atoms: _506  and  _507
REMARK  208  A    between atoms: _510  and  _512
REMARK  209  A    between atoms: _512  and  _513
REMARK  210  A    between atoms: _512  and  _515
REMARK  211  A    between atoms: _515  and  _516
REMARK  212  A    between atoms: _516  and  _517
REMARK  213  A    between atoms: _520  and  _522
REMARK  214  A    between atoms: _522  and  _523
REMARK  215  A    between atoms: _526  and  _528
REMARK  216  A    between atoms: _528  and  _529
REMARK  217  A    between atoms: _532  and  _534
REMARK  218  A    between atoms: _534  and  _535
REMARK  219  A    between atoms: _534  and  _537
REMARK  220  A    between atoms: _537  and  _538
REMARK  221  A    between atoms: _543  and  _544
REMARK                            x       y       z     vdW  Elec       q    Type
REMARK                         _______ _______ _______ _____ _____    ______ ____
ROOT
ATOM      1  O   HOH     1      57.187   9.735  50.651  0.00  0.00    +0.000 OA
ENDROOT
TORSDOF 0
REMARK  Name = ../refined-set-2016/3acx/3acx_pocket.pdb
REMARK  221 active torsions:
REMARK  status: ('A' for Active; 'I' for Inactive)
REMARK    1  A    between atoms: _1  and  _3
REMARK    2  A    between atoms: _3  and  _4
REMARK    3  A    between atoms: _3  and  _6
REMARK    4  A    between atoms: _6  and  _7
REMARK    5  A    between atoms: _10  and  _12
REMARK    6  A    between atoms: _12  and  _13
REMARK    7  A    between atoms: _12  and  _15
REMARK    8  A    between atoms: _15  and  _16
REMARK    9  A    between atoms: _16  and  _17
REMARK   10  A    between atoms: _19  and  _21
REMARK   11  A    between atoms: _21  and  _22
REMARK   12  A    between atoms: _21  and  _24
REMARK   13  A    between atoms: _24  and  _25
REMARK   14  A    between atoms: _30  and  _32
REMARK   15  A    between atoms: _32  and  _33
REMARK   16  A    between atoms: _32  and  _35
REMARK   17  A    between atoms: _35  and  _36
REMARK   18  A    between atoms: _38  and  _40
REMARK   19  A    between atoms: _40  and  _41
REMARK   20  A    between atoms: _40  and  _43
REMARK   21  A    between atoms: _43  and  _44
REMARK   22  A    between atoms: _46  and  _48
REMARK   23  A    between atoms: _48  and  _49
REMARK   24  A    between atoms: _48  and  _51
REMARK   25  A    between atoms: _51  and  _52
REMARK   26  A    between atoms: _58  and  _60
REMARK   27  A    between atoms: _60  and  _61
REMARK   28  A    between atoms: _60  and  _63
REMARK   29  A    between atoms: _63  and  _64
REMARK   30  A    between atoms: _66  and  _68
REMARK   31  A    between atoms: _68  and  _69
REMARK   32  A    between atoms: _68  and  _71
REMARK   33  A    between atoms: _71  and  _72
REMARK   34  A    between atoms: _78  and  _80
REMARK   35  A    between atoms: _80  and  _81
REMARK   36  A    between atoms: _80  and  _83
REMARK   37  A    between atoms: _86  and  _88
REMARK   38  A    between atoms: _88  and  _89
REMARK   39  A    between atoms: _88  and  _91
REMARK   40  A    between atoms: _91  and  _92
REMARK   41  A    between atoms: _102  and  _104
REMARK   42  A    between atoms: _104  and  _105
REMARK   43  A    between atoms: _104  and  _107
REMARK   44  A    between atoms: _107  and  _108
REMARK   45  A    between atoms: _111  and  _113
REMARK   46  A    between atoms: _113  and  _114
REMARK   47  A    between atoms: _113  and  _116
REMARK   48  A    between atoms: _116  and  _117
REMARK   49  A    between atoms: _122  and  _123
REMARK   50  A    between atoms: _125  and  _127
REMARK   51  A    between atoms: _127  and  _128
REMARK   52  A    between atoms: _131  and  _133
REMARK   53  A    between atoms: _133  and  _134
REMARK   54  A    between atoms: _133  and  _136
REMARK   55  A    between atoms: _139  and  _141
REMARK   56  A    between atoms: _141  and  _142
REMARK   57  A    between atoms: _141  and  _144
REMARK   58  A    between atoms: _146  and  _148
REMARK   59  A    between atoms: _148  and  _149
REMARK   60  A    between atoms: _148  and  _151
REMARK   61  A    between atoms: _151  and  _152
REMARK   62  A    between atoms: _152  and  _153
REMARK   63  A    between atoms: _153  and  _154
REMARK   64  A    between atoms: _163  and  _165
REMARK   65  A    between atoms: _165  and  _166
REMARK   66  A    between atoms: _165  and  _168
REMARK   67  A    between atoms: _168  and  _169
REMARK   68  A    between atoms: _169  and  _170
REMARK   69  A    between atoms: _170  and  _171
REMARK   70  A    between atoms: _171  and  _172
REMARK   71  A    between atoms: _176  and  _178
REMARK   72  A    between atoms: _178  and  _179
REMARK   73  A    between atoms: _178  and  _181
REMARK   74  A    between atoms: _181  and  _182
REMARK   75  A    between atoms: _185  and  _187
REMARK   76  A    between atoms: _187  and  _188
REMARK   77  A    between atoms: _187  and  _190
REMARK   78  A    between atoms: _190  and  _191
REMARK   79  A    between atoms: _194  and  _196
REMARK   80  A    between atoms: _196  and  _197
REMARK   81  A    between atoms: _196  and  _199
REMARK   82  A    between atoms: _199  and  _200
REMARK   83  A    between atoms: _203  and  _205
REMARK   84  A    between atoms: _205  and  _206
REMARK   85  A    between atoms: _205  and  _208
REMARK   86  A    between atoms: _208  and  _209
REMARK   87  A    between atoms: _212  and  _214
REMARK   88  A    between atoms: _214  and  _215
REMARK   89  A    between atoms: _214  and  _217
REMARK   90  A    between atoms: _219  and  _221
REMARK   91  A    between atoms: _221  and  _222
REMARK   92  A    between atoms: _221  and  _224
REMARK   93  A    between atoms: _227  and  _229
REMARK   94  A    between atoms: _229  and  _230
REMARK   95  A    between atoms: _233  and  _235
REMARK   96  A    between atoms: _235  and  _236
REMARK   97  A    between atoms: _238  and  _240
REMARK   98  A    between atoms: _240  and  _241
REMARK   99  A    between atoms: _240  and  _243
REMARK  100  A    between atoms: _243  and  _244
REMARK  101  A    between atoms: _247  and  _249
REMARK  102  A    between atoms: _249  and  _250
REMARK  103  A    between atoms: _249  and  _252
REMARK  104  A    between atoms: _255  and  _257
REMARK  105  A    between atoms: _257  and  _258
REMARK  106  A    between atoms: _260  and  _262
REMARK  107  A    between atoms: _262  and  _263
REMARK  108  A    between atoms: _262  and  _265
REMARK  109  A    between atoms: _265  and  _266
REMARK  110  A    between atoms: _266  and  _267
REMARK  111  A    between atoms: _270  and  _272
REMARK  112  A    between atoms: _272  and  _273
REMARK  113  A    between atoms: _272  and  _275
REMARK  114  A    between atoms: _278  and  _280
REMARK  115  A    between atoms: _280  and  _281
REMARK  116  A    between atoms: _280  and  _283
REMARK  117  A    between atoms: _283  and  _284
REMARK  118  A    between atoms: _287  and  _289
REMARK  119  A    between atoms: _289  and  _290
REMARK  120  A    between atoms: _289  and  _292
REMARK  121  A    between atoms: _292  and  _293
REMARK  122  A    between atoms: _296  and  _298
REMARK  123  A    between atoms: _298  and  _299
REMARK  124  A    between atoms: _298  and  _301
REMARK  125  A    between atoms: _301  and  _302
REMARK  126  A    between atoms: _305  and  _307
REMARK  127  A    between atoms: _307  and  _308
REMARK  128  A    between atoms: _307  and  _310
REMARK  129  A    between atoms: _310  and  _311
REMARK  130  A    between atoms: _314  and  _316
REMARK  131  A    between atoms: _316  and  _317
REMARK  132  A    between atoms: _316  and  _319
REMARK  133  A    between atoms: _319  and  _320
REMARK  134  A    between atoms: _325  and  _326
REMARK  135  A    between atoms: _328  and  _330
REMARK  136  A    between atoms: _330  and  _331
REMARK  137  A    between atoms: _330  and  _333
REMARK  138  A    between atoms: _336  and  _338
REMARK  139  A    between atoms: _338  and  _339
REMARK  140  A    between atoms: _342  and  _344
REMARK  141  A    between atoms: _344  and  _345
REMARK  142  A    between atoms: _344  and  _347
REMARK  143  A    between atoms: _347  and  _348
REMARK  144  A    between atoms: _348  and  _349
REMARK  145  A    between atoms: _349  and  _350
REMARK  146  A    between atoms: _359  and  _361
REMARK  147  A    between atoms: _361  and  _362
REMARK  148  A    between atoms: _361  and  _364
REMARK  149  A    between atoms: _364  and  _365
REMARK  150  A    between atoms: _365  and  _366
REMARK  151  A    between atoms: _366  and  _367
REMARK  152  A    between atoms: _376  and  _378
REMARK  153  A    between atoms: _378  and  _379
REMARK  154  A    between atoms: _378  and  _381
REMARK  155  A    between atoms: _381  and  _382
REMARK  156  A    between atoms: _385  and  _387
REMARK  157  A    between atoms: _387  and  _388
REMARK  158  A    between atoms: _390  and  _392
REMARK  159  A    between atoms: _392  and  _393
REMARK  160  A    between atoms: _392  and  _395
REMARK  161  A    between atoms: _395  and  _396
REMARK  162  A    between atoms: _396  and  _397
REMARK  163  A    between atoms: _400  and  _402
REMARK  164  A    between atoms: _402  and  _403
REMARK  165  A    between atoms: _402  and  _405
REMARK  166  A    between atoms: _405  and  _406
REMARK  167  A    between atoms: _408  and  _410
REMARK  168  A    between atoms: _410  and  _411
REMARK  169  A    between atoms: _410  and  _413
REMARK  170  A    between atoms: _413  and  _414
REMARK  171  A    between atoms: _417  and  _419
REMARK  172  A    between atoms: _419  and  _420
REMARK  173  A    between atoms: _419  and  _422
REMARK  174  A    between atoms: _422  and  _423
REMARK  175  A    between atoms: _423  and  _424
REMARK  176  A    between atoms: _429  and  _431
REMARK  177  A    between atoms: _431  and  _432
REMARK  178  A    between atoms: _431  and  _434
REMARK  179  A    between atoms: _434  and  _435
REMARK  180  A    between atoms: _438  and  _440
REMARK  181  A    between atoms: _440  and  _441
REMARK  182  A    between atoms: _440  and  _443
REMARK  183  A    between atoms: _443  and  _444
REMARK  184  A    between atoms: _449  and  _451
REMARK  185  A    between atoms: _451  and  _452
REMARK  186  A    between atoms: _451  and  _454
REMARK  187  A    between atoms: _457  and  _459
REMARK  188  A    between atoms: _459  and  _460
REMARK  189  A    between atoms: _459  and  _462
REMARK  190  A    between atoms: _462  and  _463
REMARK  191  A    between atoms: _466  and  _468
REMARK  192  A    between atoms: _468  and  _469
REMARK  193  A    between atoms: _468  and  _471
REMARK  194  A    between atoms: _474  and  _476
REMARK  195  A    between atoms: _476  and  _477
REMARK  196  A    between atoms: _476  and  _479
REMARK  197  A    between atoms: _479  and  _480
REMARK  198  A    between atoms: _486  and  _488
REMARK  199  A    between atoms: _488  and  _489
REMARK  200  A    between atoms: _492  and  _494
REMARK  201  A    between atoms: _494  and  _495
REMARK  202  A    between atoms: _494  and  _497
REMARK  203  A    between atoms: _497  and  _498
REMARK  204  A    between atoms: _501  and  _503
REMARK  205  A    between atoms: _503  and  _504
REMARK  206  A    between atoms: _503  and  _506
REMARK  207  A    between atoms: _506  and  _507
REMARK  208  A    between atoms: _510  and  _512
REMARK  209  A    between atoms: _512  and  _513
REMARK  210  A    between atoms: _512  and  _515
REMARK  211  A    between atoms: _515  and  _516
REMARK  212  A    between atoms: _516  and  _517
REMARK  213  A    between atoms: _520  and  _522
REMARK  214  A    between atoms: _522  and  _523
REMARK  215  A    between atoms: _526  and  _528
REMARK  216  A    between atoms: _528  and  _529
REMARK  217  A    between atoms: _532  and  _534
REMARK  218  A    between atoms: _534  and  _535
REMARK  219  A    between atoms: _534  and  _537
REMARK  220  A    between atoms: _537  and  _538
REMARK  221  A    between atoms: _543  and  _544
REMARK                            x       y       z     vdW  Elec       q    Type
REMARK                         _______ _______ _______ _____ _____    ______ ____
ROOT
ATOM      1  O   HOH     1      51.362   3.664  54.232  0.00  0.00    +0.000 OA
ENDROOT
TORSDOF 0
REMARK  Name = ../refined-set-2016/3acx/3acx_pocket.pdb
REMARK  221 active torsions:
REMARK  status: ('A' for Active; 'I' for Inactive)
REMARK    1  A    between atoms: _1  and  _3
REMARK    2  A    between atoms: _3  and  _4
REMARK    3  A    between atoms: _3  and  _6
REMARK    4  A    between atoms: _6  and  _7
REMARK    5  A    between atoms: _10  and  _12
REMARK    6  A    between atoms: _12  and  _13
REMARK    7  A    between atoms: _12  and  _15
REMARK    8  A    between atoms: _15  and  _16
REMARK    9  A    between atoms: _16  and  _17
REMARK   10  A    between atoms: _19  and  _21
REMARK   11  A    between atoms: _21  and  _22
REMARK   12  A    between atoms: _21  and  _24
REMARK   13  A    between atoms: _24  and  _25
REMARK   14  A    between atoms: _30  and  _32
REMARK   15  A    between atoms: _32  and  _33
REMARK   16  A    between atoms: _32  and  _35
REMARK   17  A    between atoms: _35  and  _36
REMARK   18  A    between atoms: _38  and  _40
REMARK   19  A    between atoms: _40  and  _41
REMARK   20  A    between atoms: _40  and  _43
REMARK   21  A    between atoms: _43  and  _44
REMARK   22  A    between atoms: _46  and  _48
REMARK   23  A    between atoms: _48  and  _49
REMARK   24  A    between atoms: _48  and  _51
REMARK   25  A    between atoms: _51  and  _52
REMARK   26  A    between atoms: _58  and  _60
REMARK   27  A    between atoms: _60  and  _61
REMARK   28  A    between atoms: _60  and  _63
REMARK   29  A    between atoms: _63  and  _64
REMARK   30  A    between atoms: _66  and  _68
REMARK   31  A    between atoms: _68  and  _69
REMARK   32  A    between atoms: _68  and  _71
REMARK   33  A    between atoms: _71  and  _72
REMARK   34  A    between atoms: _78  and  _80
REMARK   35  A    between atoms: _80  and  _81
REMARK   36  A    between atoms: _80  and  _83
REMARK   37  A    between atoms: _86  and  _88
REMARK   38  A    between atoms: _88  and  _89
REMARK   39  A    between atoms: _88  and  _91
REMARK   40  A    between atoms: _91  and  _92
REMARK   41  A    between atoms: _102  and  _104
REMARK   42  A    between atoms: _104  and  _105
REMARK   43  A    between atoms: _104  and  _107
REMARK   44  A    between atoms: _107  and  _108
REMARK   45  A    between atoms: _111  and  _113
REMARK   46  A    between atoms: _113  and  _114
REMARK   47  A    between atoms: _113  and  _116
REMARK   48  A    between atoms: _116  and  _117
REMARK   49  A    between atoms: _122  and  _123
REMARK   50  A    between atoms: _125  and  _127
REMARK   51  A    between atoms: _127  and  _128
REMARK   52  A    between atoms: _131  and  _133
REMARK   53  A    between atoms: _133  and  _134
REMARK   54  A    between atoms: _133  and  _136
REMARK   55  A    between atoms: _139  and  _141
REMARK   56  A    between atoms: _141  and  _142
REMARK   57  A    between atoms: _141  and  _144
REMARK   58  A    between atoms: _146  and  _148
REMARK   59  A    between atoms: _148  and  _149
REMARK   60  A    between atoms: _148  and  _151
REMARK   61  A    between atoms: _151  and  _152
REMARK   62  A    between atoms: _152  and  _153
REMARK   63  A    between atoms: _153  and  _154
REMARK   64  A    between atoms: _163  and  _165
REMARK   65  A    between atoms: _165  and  _166
REMARK   66  A    between atoms: _165  and  _168
REMARK   67  A    between atoms: _168  and  _169
REMARK   68  A    between atoms: _169  and  _170
REMARK   69  A    between atoms: _170  and  _171
REMARK   70  A    between atoms: _171  and  _172
REMARK   71  A    between atoms: _176  and  _178
REMARK   72  A    between atoms: _178  and  _179
REMARK   73  A    between atoms: _178  and  _181
REMARK   74  A    between atoms: _181  and  _182
REMARK   75  A    between atoms: _185  and  _187
REMARK   76  A    between atoms: _187  and  _188
REMARK   77  A    between atoms: _187  and  _190
REMARK   78  A    between atoms: _190  and  _191
REMARK   79  A    between atoms: _194  and  _196
REMARK   80  A    between atoms: _196  and  _197
REMARK   81  A    between atoms: _196  and  _199
REMARK   82  A    between atoms: _199  and  _200
REMARK   83  A    between atoms: _203  and  _205
REMARK   84  A    between atoms: _205  and  _206
REMARK   85  A    between atoms: _205  and  _208
REMARK   86  A    between atoms: _208  and  _209
REMARK   87  A    between atoms: _212  and  _214
REMARK   88  A    between atoms: _214  and  _215
REMARK   89  A    between atoms: _214  and  _217
REMARK   90  A    between atoms: _219  and  _221
REMARK   91  A    between atoms: _221  and  _222
REMARK   92  A    between atoms: _221  and  _224
REMARK   93  A    between atoms: _227  and  _229
REMARK   94  A    between atoms: _229  and  _230
REMARK   95  A    between atoms: _233  and  _235
REMARK   96  A    between atoms: _235  and  _236
REMARK   97  A    between atoms: _238  and  _240
REMARK   98  A    between atoms: _240  and  _241
REMARK   99  A    between atoms: _240  and  _243
REMARK  100  A    between atoms: _243  and  _244
REMARK  101  A    between atoms: _247  and  _249
REMARK  102  A    between atoms: _249  and  _250
REMARK  103  A    between atoms: _249  and  _252
REMARK  104  A    between atoms: _255  and  _257
REMARK  105  A    between atoms: _257  and  _258
REMARK  106  A    between atoms: _260  and  _262
REMARK  107  A    between atoms: _262  and  _263
REMARK  108  A    between atoms: _262  and  _265
REMARK  109  A    between atoms: _265  and  _266
REMARK  110  A    between atoms: _266  and  _267
REMARK  111  A    between atoms: _270  and  _272
REMARK  112  A    between atoms: _272  and  _273
REMARK  113  A    between atoms: _272  and  _275
REMARK  114  A    between atoms: _278  and  _280
REMARK  115  A    between atoms: _280  and  _281
REMARK  116  A    between atoms: _280  and  _283
REMARK  117  A    between atoms: _283  and  _284
REMARK  118  A    between atoms: _287  and  _289
REMARK  119  A    between atoms: _289  and  _290
REMARK  120  A    between atoms: _289  and  _292
REMARK  121  A    between atoms: _292  and  _293
REMARK  122  A    between atoms: _296  and  _298
REMARK  123  A    between atoms: _298  and  _299
REMARK  124  A    between atoms: _298  and  _301
REMARK  125  A    between atoms: _301  and  _302
REMARK  126  A    between atoms: _305  and  _307
REMARK  127  A    between atoms: _307  and  _308
REMARK  128  A    between atoms: _307  and  _310
REMARK  129  A    between atoms: _310  and  _311
REMARK  130  A    between atoms: _314  and  _316
REMARK  131  A    between atoms: _316  and  _317
REMARK  132  A    between atoms: _316  and  _319
REMARK  133  A    between atoms: _319  and  _320
REMARK  134  A    between atoms: _325  and  _326
REMARK  135  A    between atoms: _328  and  _330
REMARK  136  A    between atoms: _330  and  _331
REMARK  137  A    between atoms: _330  and  _333
REMARK  138  A    between atoms: _336  and  _338
REMARK  139  A    between atoms: _338  and  _339
REMARK  140  A    between atoms: _342  and  _344
REMARK  141  A    between atoms: _344  and  _345
REMARK  142  A    between atoms: _344  and  _347
REMARK  143  A    between atoms: _347  and  _348
REMARK  144  A    between atoms: _348  and  _349
REMARK  145  A    between atoms: _349  and  _350
REMARK  146  A    between atoms: _359  and  _361
REMARK  147  A    between atoms: _361  and  _362
REMARK  148  A    between atoms: _361  and  _364
REMARK  149  A    between atoms: _364  and  _365
REMARK  150  A    between atoms: _365  and  _366
REMARK  151  A    between atoms: _366  and  _367
REMARK  152  A    between atoms: _376  and  _378
REMARK  153  A    between atoms: _378  and  _379
REMARK  154  A    between atoms: _378  and  _381
REMARK  155  A    between atoms: _381  and  _382
REMARK  156  A    between atoms: _385  and  _387
REMARK  157  A    between atoms: _387  and  _388
REMARK  158  A    between atoms: _390  and  _392
REMARK  159  A    between atoms: _392  and  _393
REMARK  160  A    between atoms: _392  and  _395
REMARK  161  A    between atoms: _395  and  _396
REMARK  162  A    between atoms: _396  and  _397
REMARK  163  A    between atoms: _400  and  _402
REMARK  164  A    between atoms: _402  and  _403
REMARK  165  A    between atoms: _402  and  _405
REMARK  166  A    between atoms: _405  and  _406
REMARK  167  A    between atoms: _408  and  _410
REMARK  168  A    between atoms: _410  and  _411
REMARK  169  A    between atoms: _410  and  _413
REMARK  170  A    between atoms: _413  and  _414
REMARK  171  A    between atoms: _417  and  _419
REMARK  172  A    between atoms: _419  and  _420
REMARK  173  A    between atoms: _419  and  _422
REMARK  174  A    between atoms: _422  and  _423
REMARK  175  A    between atoms: _423  and  _424
REMARK  176  A    between atoms: _429  and  _431
REMARK  177  A    between atoms: _431  and  _432
REMARK  178  A    between atoms: _431  and  _434
REMARK  179  A    between atoms: _434  and  _435
REMARK  180  A    between atoms: _438  and  _440
REMARK  181  A    between atoms: _440  and  _441
REMARK  182  A    between atoms: _440  and  _443
REMARK  183  A    between atoms: _443  and  _444
REMARK  184  A    between atoms: _449  and  _451
REMARK  185  A    between atoms: _451  and  _452
REMARK  186  A    between atoms: _451  and  _454
REMARK  187  A    between atoms: _457  and  _459
REMARK  188  A    between atoms: _459  and  _460
REMARK  189  A    between atoms: _459  and  _462
REMARK  190  A    between atoms: _462  and  _463
REMARK  191  A    between atoms: _466  and  _468
REMARK  192  A    between atoms: _468  and  _469
REMARK  193  A    between atoms: _468  and  _471
REMARK  194  A    between atoms: _474  and  _476
REMARK  195  A    between atoms: _476  and  _477
REMARK  196  A    between atoms: _476  and  _479
REMARK  197  A    between atoms: _479  and  _480
REMARK  198  A    between atoms: _486  and  _488
REMARK  199  A    between atoms: _488  and  _489
REMARK  200  A    between atoms: _492  and  _494
REMARK  201  A    between atoms: _494  and  _495
REMARK  202  A    between atoms: _494  and  _497
REMARK  203  A    between atoms: _497  and  _498
REMARK  204  A    between atoms: _501  and  _503
REMARK  205  A    between atoms: _503  and  _504
REMARK  206  A    between atoms: _503  and  _506
REMARK  207  A    between atoms: _506  and  _507
REMARK  208  A    between atoms: _510  and  _512
REMARK  209  A    between atoms: _512  and  _513
REMARK  210  A    between atoms: _512  and  _515
REMARK  211  A    between atoms: _515  and  _516
REMARK  212  A    between atoms: _516  and  _517
REMARK  213  A    between atoms: _520  and  _522
REMARK  214  A    between atoms: _522  and  _523
REMARK  215  A    between atoms: _526  and  _528
REMARK  216  A    between atoms: _528  and  _529
REMARK  217  A    between atoms: _532  and  _534
REMARK  218  A    between atoms: _534  and  _535
REMARK  219  A    between atoms: _534  and  _537
REMARK  220  A    between atoms: _537  and  _538
REMARK  221  A    between atoms: _543  and  _544
REMARK                            x       y       z     vdW  Elec       q    Type
REMARK                         _______ _______ _______ _____ _____    ______ ____
ROOT
ATOM      1  O   HOH     1      53.321   5.698  47.322  0.00  0.00    +0.000 OA
ENDROOT
TORSDOF 0
REMARK  Name = ../refined-set-2016/3acx/3acx_pocket.pdb
REMARK  221 active torsions:
REMARK  status: ('A' for Active; 'I' for Inactive)
REMARK    1  A    between atoms: _1  and  _3
REMARK    2  A    between atoms: _3  and  _4
REMARK    3  A    between atoms: _3  and  _6
REMARK    4  A    between atoms: _6  and  _7
REMARK    5  A    between atoms: _10  and  _12
REMARK    6  A    between atoms: _12  and  _13
REMARK    7  A    between atoms: _12  and  _15
REMARK    8  A    between atoms: _15  and  _16
REMARK    9  A    between atoms: _16  and  _17
REMARK   10  A    between atoms: _19  and  _21
REMARK   11  A    between atoms: _21  and  _22
REMARK   12  A    between atoms: _21  and  _24
REMARK   13  A    between atoms: _24  and  _25
REMARK   14  A    between atoms: _30  and  _32
REMARK   15  A    between atoms: _32  and  _33
REMARK   16  A    between atoms: _32  and  _35
REMARK   17  A    between atoms: _35  and  _36
REMARK   18  A    between atoms: _38  and  _40
REMARK   19  A    between atoms: _40  and  _41
REMARK   20  A    between atoms: _40  and  _43
REMARK   21  A    between atoms: _43  and  _44
REMARK   22  A    between atoms: _46  and  _48
REMARK   23  A    between atoms: _48  and  _49
REMARK   24  A    between atoms: _48  and  _51
REMARK   25  A    between atoms: _51  and  _52
REMARK   26  A    between atoms: _58  and  _60
REMARK   27  A    between atoms: _60  and  _61
REMARK   28  A    between atoms: _60  and  _63
REMARK   29  A    between atoms: _63  and  _64
REMARK   30  A    between atoms: _66  and  _68
REMARK   31  A    between atoms: _68  and  _69
REMARK   32  A    between atoms: _68  and  _71
REMARK   33  A    between atoms: _71  and  _72
REMARK   34  A    between atoms: _78  and  _80
REMARK   35  A    between atoms: _80  and  _81
REMARK   36  A    between atoms: _80  and  _83
REMARK   37  A    between atoms: _86  and  _88
REMARK   38  A    between atoms: _88  and  _89
REMARK   39  A    between atoms: _88  and  _91
REMARK   40  A    between atoms: _91  and  _92
REMARK   41  A    between atoms: _102  and  _104
REMARK   42  A    between atoms: _104  and  _105
REMARK   43  A    between atoms: _104  and  _107
REMARK   44  A    between atoms: _107  and  _108
REMARK   45  A    between atoms: _111  and  _113
REMARK   46  A    between atoms: _113  and  _114
REMARK   47  A    between atoms: _113  and  _116
REMARK   48  A    between atoms: _116  and  _117
REMARK   49  A    between atoms: _122  and  _123
REMARK   50  A    between atoms: _125  and  _127
REMARK   51  A    between atoms: _127  and  _128
REMARK   52  A    between atoms: _131  and  _133
REMARK   53  A    between atoms: _133  and  _134
REMARK   54  A    between atoms: _133  and  _136
REMARK   55  A    between atoms: _139  and  _141
REMARK   56  A    between atoms: _141  and  _142
REMARK   57  A    between atoms: _141  and  _144
REMARK   58  A    between atoms: _146  and  _148
REMARK   59  A    between atoms: _148  and  _149
REMARK   60  A    between atoms: _148  and  _151
REMARK   61  A    between atoms: _151  and  _152
REMARK   62  A    between atoms: _152  and  _153
REMARK   63  A    between atoms: _153  and  _154
REMARK   64  A    between atoms: _163  and  _165
REMARK   65  A    between atoms: _165  and  _166
REMARK   66  A    between atoms: _165  and  _168
REMARK   67  A    between atoms: _168  and  _169
REMARK   68  A    between atoms: _169  and  _170
REMARK   69  A    between atoms: _170  and  _171
REMARK   70  A    between atoms: _171  and  _172
REMARK   71  A    between atoms: _176  and  _178
REMARK   72  A    between atoms: _178  and  _179
REMARK   73  A    between atoms: _178  and  _181
REMARK   74  A    between atoms: _181  and  _182
REMARK   75  A    between atoms: _185  and  _187
REMARK   76  A    between atoms: _187  and  _188
REMARK   77  A    between atoms: _187  and  _190
REMARK   78  A    between atoms: _190  and  _191
REMARK   79  A    between atoms: _194  and  _196
REMARK   80  A    between atoms: _196  and  _197
REMARK   81  A    between atoms: _196  and  _199
REMARK   82  A    between atoms: _199  and  _200
REMARK   83  A    between atoms: _203  and  _205
REMARK   84  A    between atoms: _205  and  _206
REMARK   85  A    between atoms: _205  and  _208
REMARK   86  A    between atoms: _208  and  _209
REMARK   87  A    between atoms: _212  and  _214
REMARK   88  A    between atoms: _214  and  _215
REMARK   89  A    between atoms: _214  and  _217
REMARK   90  A    between atoms: _219  and  _221
REMARK   91  A    between atoms: _221  and  _222
REMARK   92  A    between atoms: _221  and  _224
REMARK   93  A    between atoms: _227  and  _229
REMARK   94  A    between atoms: _229  and  _230
REMARK   95  A    between atoms: _233  and  _235
REMARK   96  A    between atoms: _235  and  _236
REMARK   97  A    between atoms: _238  and  _240
REMARK   98  A    between atoms: _240  and  _241
REMARK   99  A    between atoms: _240  and  _243
REMARK  100  A    between atoms: _243  and  _244
REMARK  101  A    between atoms: _247  and  _249
REMARK  102  A    between atoms: _249  and  _250
REMARK  103  A    between atoms: _249  and  _252
REMARK  104  A    between atoms: _255  and  _257
REMARK  105  A    between atoms: _257  and  _258
REMARK  106  A    between atoms: _260  and  _262
REMARK  107  A    between atoms: _262  and  _263
REMARK  108  A    between atoms: _262  and  _265
REMARK  109  A    between atoms: _265  and  _266
REMARK  110  A    between atoms: _266  and  _267
REMARK  111  A    between atoms: _270  and  _272
REMARK  112  A    between atoms: _272  and  _273
REMARK  113  A    between atoms: _272  and  _275
REMARK  114  A    between atoms: _278  and  _280
REMARK  115  A    between atoms: _280  and  _281
REMARK  116  A    between atoms: _280  and  _283
REMARK  117  A    between atoms: _283  and  _284
REMARK  118  A    between atoms: _287  and  _289
REMARK  119  A    between atoms: _289  and  _290
REMARK  120  A    between atoms: _289  and  _292
REMARK  121  A    between atoms: _292  and  _293
REMARK  122  A    between atoms: _296  and  _298
REMARK  123  A    between atoms: _298  and  _299
REMARK  124  A    between atoms: _298  and  _301
REMARK  125  A    between atoms: _301  and  _302
REMARK  126  A    between atoms: _305  and  _307
REMARK  127  A    between atoms: _307  and  _308
REMARK  128  A    between atoms: _307  and  _310
REMARK  129  A    between atoms: _310  and  _311
REMARK  130  A    between atoms: _314  and  _316
REMARK  131  A    between atoms: _316  and  _317
REMARK  132  A    between atoms: _316  and  _319
REMARK  133  A    between atoms: _319  and  _320
REMARK  134  A    between atoms: _325  and  _326
REMARK  135  A    between atoms: _328  and  _330
REMARK  136  A    between atoms: _330  and  _331
REMARK  137  A    between atoms: _330  and  _333
REMARK  138  A    between atoms: _336  and  _338
REMARK  139  A    between atoms: _338  and  _339
REMARK  140  A    between atoms: _342  and  _344
REMARK  141  A    between atoms: _344  and  _345
REMARK  142  A    between atoms: _344  and  _347
REMARK  143  A    between atoms: _347  and  _348
REMARK  144  A    between atoms: _348  and  _349
REMARK  145  A    between atoms: _349  and  _350
REMARK  146  A    between atoms: _359  and  _361
REMARK  147  A    between atoms: _361  and  _362
REMARK  148  A    between atoms: _361  and  _364
REMARK  149  A    between atoms: _364  and  _365
REMARK  150  A    between atoms: _365  and  _366
REMARK  151  A    between atoms: _366  and  _367
REMARK  152  A    between atoms: _376  and  _378
REMARK  153  A    between atoms: _378  and  _379
REMARK  154  A    between atoms: _378  and  _381
REMARK  155  A    between atoms: _381  and  _382
REMARK  156  A    between atoms: _385  and  _387
REMARK  157  A    between atoms: _387  and  _388
REMARK  158  A    between atoms: _390  and  _392
REMARK  159  A    between atoms: _392  and  _393
REMARK  160  A    between atoms: _392  and  _395
REMARK  161  A    between atoms: _395  and  _396
REMARK  162  A    between atoms: _396  and  _397
REMARK  163  A    between atoms: _400  and  _402
REMARK  164  A    between atoms: _402  and  _403
REMARK  165  A    between atoms: _402  and  _405
REMARK  166  A    between atoms: _405  and  _406
REMARK  167  A    between atoms: _408  and  _410
REMARK  168  A    between atoms: _410  and  _411
REMARK  169  A    between atoms: _410  and  _413
REMARK  170  A    between atoms: _413  and  _414
REMARK  171  A    between atoms: _417  and  _419
REMARK  172  A    between atoms: _419  and  _420
REMARK  173  A    between atoms: _419  and  _422
REMARK  174  A    between atoms: _422  and  _423
REMARK  175  A    between atoms: _423  and  _424
REMARK  176  A    between atoms: _429  and  _431
REMARK  177  A    between atoms: _431  and  _432
REMARK  178  A    between atoms: _431  and  _434
REMARK  179  A    between atoms: _434  and  _435
REMARK  180  A    between atoms: _438  and  _440
REMARK  181  A    between atoms: _440  and  _441
REMARK  182  A    between atoms: _440  and  _443
REMARK  183  A    between atoms: _443  and  _444
REMARK  184  A    between atoms: _449  and  _451
REMARK  185  A    between atoms: _451  and  _452
REMARK  186  A    between atoms: _451  and  _454
REMARK  187  A    between atoms: _457  and  _459
REMARK  188  A    between atoms: _459  and  _460
REMARK  189  A    between atoms: _459  and  _462
REMARK  190  A    between atoms: _462  and  _463
REMARK  191  A    between atoms: _466  and  _468
REMARK  192  A    between atoms: _468  and  _469
REMARK  193  A    between atoms: _468  and  _471
REMARK  194  A    between atoms: _474  and  _476
REMARK  195  A    between atoms: _476  and  _477
REMARK  196  A    between atoms: _476  and  _479
REMARK  197  A    between atoms: _479  and  _480
REMARK  198  A    between atoms: _486  and  _488
REMARK  199  A    between atoms: _488  and  _489
REMARK  200  A    between atoms: _492  and  _494
REMARK  201  A    between atoms: _494  and  _495
REMARK  202  A    between atoms: _494  and  _497
REMARK  203  A    between atoms: _497  and  _498
REMARK  204  A    between atoms: _501  and  _503
REMARK  205  A    between atoms: _503  and  _504
REMARK  206  A    between atoms: _503  and  _506
REMARK  207  A    between atoms: _506  and  _507
REMARK  208  A    between atoms: _510  and  _512
REMARK  209  A    between atoms: _512  and  _513
REMARK  210  A    between atoms: _512  and  _515
REMARK  211  A    between atoms: _515  and  _516
REMARK  212  A    between atoms: _516  and  _517
REMARK  213  A    between atoms: _520  and  _522
REMARK  214  A    between atoms: _522  and  _523
REMARK  215  A    between atoms: _526  and  _528
REMARK  216  A    between atoms: _528  and  _529
REMARK  217  A    between atoms: _532  and  _534
REMARK  218  A    between atoms: _534  and  _535
REMARK  219  A    between atoms: _534  and  _537
REMARK  220  A    between atoms: _537  and  _538
REMARK  221  A    between atoms: _543  and  _544
REMARK                            x       y       z     vdW  Elec       q    Type
REMARK                         _______ _______ _______ _____ _____    ______ ____
ROOT
ATOM      1  O   HOH     1      58.951  11.382  51.833  0.00  0.00    +0.000 OA
ENDROOT
TORSDOF 0
REMARK  Name = ../refined-set-2016/3acx/3acx_pocket.pdb
REMARK  221 active torsions:
REMARK  status: ('A' for Active; 'I' for Inactive)
REMARK    1  A    between atoms: _1  and  _3
REMARK    2  A    between atoms: _3  and  _4
REMARK    3  A    between atoms: _3  and  _6
REMARK    4  A    between atoms: _6  and  _7
REMARK    5  A    between atoms: _10  and  _12
REMARK    6  A    between atoms: _12  and  _13
REMARK    7  A    between atoms: _12  and  _15
REMARK    8  A    between atoms: _15  and  _16
REMARK    9  A    between atoms: _16  and  _17
REMARK   10  A    between atoms: _19  and  _21
REMARK   11  A    between atoms: _21  and  _22
REMARK   12  A    between atoms: _21  and  _24
REMARK   13  A    between atoms: _24  and  _25
REMARK   14  A    between atoms: _30  and  _32
REMARK   15  A    between atoms: _32  and  _33
REMARK   16  A    between atoms: _32  and  _35
REMARK   17  A    between atoms: _35  and  _36
REMARK   18  A    between atoms: _38  and  _40
REMARK   19  A    between atoms: _40  and  _41
REMARK   20  A    between atoms: _40  and  _43
REMARK   21  A    between atoms: _43  and  _44
REMARK   22  A    between atoms: _46  and  _48
REMARK   23  A    between atoms: _48  and  _49
REMARK   24  A    between atoms: _48  and  _51
REMARK   25  A    between atoms: _51  and  _52
REMARK   26  A    between atoms: _58  and  _60
REMARK   27  A    between atoms: _60  and  _61
REMARK   28  A    between atoms: _60  and  _63
REMARK   29  A    between atoms: _63  and  _64
REMARK   30  A    between atoms: _66  and  _68
REMARK   31  A    between atoms: _68  and  _69
REMARK   32  A    between atoms: _68  and  _71
REMARK   33  A    between atoms: _71  and  _72
REMARK   34  A    between atoms: _78  and  _80
REMARK   35  A    between atoms: _80  and  _81
REMARK   36  A    between atoms: _80  and  _83
REMARK   37  A    between atoms: _86  and  _88
REMARK   38  A    between atoms: _88  and  _89
REMARK   39  A    between atoms: _88  and  _91
REMARK   40  A    between atoms: _91  and  _92
REMARK   41  A    between atoms: _102  and  _104
REMARK   42  A    between atoms: _104  and  _105
REMARK   43  A    between atoms: _104  and  _107
REMARK   44  A    between atoms: _107  and  _108
REMARK   45  A    between atoms: _111  and  _113
REMARK   46  A    between atoms: _113  and  _114
REMARK   47  A    between atoms: _113  and  _116
REMARK   48  A    between atoms: _116  and  _117
REMARK   49  A    between atoms: _122  and  _123
REMARK   50  A    between atoms: _125  and  _127
REMARK   51  A    between atoms: _127  and  _128
REMARK   52  A    between atoms: _131  and  _133
REMARK   53  A    between atoms: _133  and  _134
REMARK   54  A    between atoms: _133  and  _136
REMARK   55  A    between atoms: _139  and  _141
REMARK   56  A    between atoms: _141  and  _142
REMARK   57  A    between atoms: _141  and  _144
REMARK   58  A    between atoms: _146  and  _148
REMARK   59  A    between atoms: _148  and  _149
REMARK   60  A    between atoms: _148  and  _151
REMARK   61  A    between atoms: _151  and  _152
REMARK   62  A    between atoms: _152  and  _153
REMARK   63  A    between atoms: _153  and  _154
REMARK   64  A    between atoms: _163  and  _165
REMARK   65  A    between atoms: _165  and  _166
REMARK   66  A    between atoms: _165  and  _168
REMARK   67  A    between atoms: _168  and  _169
REMARK   68  A    between atoms: _169  and  _170
REMARK   69  A    between atoms: _170  and  _171
REMARK   70  A    between atoms: _171  and  _172
REMARK   71  A    between atoms: _176  and  _178
REMARK   72  A    between atoms: _178  and  _179
REMARK   73  A    between atoms: _178  and  _181
REMARK   74  A    between atoms: _181  and  _182
REMARK   75  A    between atoms: _185  and  _187
REMARK   76  A    between atoms: _187  and  _188
REMARK   77  A    between atoms: _187  and  _190
REMARK   78  A    between atoms: _190  and  _191
REMARK   79  A    between atoms: _194  and  _196
REMARK   80  A    between atoms: _196  and  _197
REMARK   81  A    between atoms: _196  and  _199
REMARK   82  A    between atoms: _199  and  _200
REMARK   83  A    between atoms: _203  and  _205
REMARK   84  A    between atoms: _205  and  _206
REMARK   85  A    between atoms: _205  and  _208
REMARK   86  A    between atoms: _208  and  _209
REMARK   87  A    between atoms: _212  and  _214
REMARK   88  A    between atoms: _214  and  _215
REMARK   89  A    between atoms: _214  and  _217
REMARK   90  A    between atoms: _219  and  _221
REMARK   91  A    between atoms: _221  and  _222
REMARK   92  A    between atoms: _221  and  _224
REMARK   93  A    between atoms: _227  and  _229
REMARK   94  A    between atoms: _229  and  _230
REMARK   95  A    between atoms: _233  and  _235
REMARK   96  A    between atoms: _235  and  _236
REMARK   97  A    between atoms: _238  and  _240
REMARK   98  A    between atoms: _240  and  _241
REMARK   99  A    between atoms: _240  and  _243
REMARK  100  A    between atoms: _243  and  _244
REMARK  101  A    between atoms: _247  and  _249
REMARK  102  A    between atoms: _249  and  _250
REMARK  103  A    between atoms: _249  and  _252
REMARK  104  A    between atoms: _255  and  _257
REMARK  105  A    between atoms: _257  and  _258
REMARK  106  A    between atoms: _260  and  _262
REMARK  107  A    between atoms: _262  and  _263
REMARK  108  A    between atoms: _262  and  _265
REMARK  109  A    between atoms: _265  and  _266
REMARK  110  A    between atoms: _266  and  _267
REMARK  111  A    between atoms: _270  and  _272
REMARK  112  A    between atoms: _272  and  _273
REMARK  113  A    between atoms: _272  and  _275
REMARK  114  A    between atoms: _278  and  _280
REMARK  115  A    between atoms: _280  and  _281
REMARK  116  A    between atoms: _280  and  _283
REMARK  117  A    between atoms: _283  and  _284
REMARK  118  A    between atoms: _287  and  _289
REMARK  119  A    between atoms: _289  and  _290
REMARK  120  A    between atoms: _289  and  _292
REMARK  121  A    between atoms: _292  and  _293
REMARK  122  A    between atoms: _296  and  _298
REMARK  123  A    between atoms: _298  and  _299
REMARK  124  A    between atoms: _298  and  _301
REMARK  125  A    between atoms: _301  and  _302
REMARK  126  A    between atoms: _305  and  _307
REMARK  127  A    between atoms: _307  and  _308
REMARK  128  A    between atoms: _307  and  _310
REMARK  129  A    between atoms: _310  and  _311
REMARK  130  A    between atoms: _314  and  _316
REMARK  131  A    between atoms: _316  and  _317
REMARK  132  A    between atoms: _316  and  _319
REMARK  133  A    between atoms: _319  and  _320
REMARK  134  A    between atoms: _325  and  _326
REMARK  135  A    between atoms: _328  and  _330
REMARK  136  A    between atoms: _330  and  _331
REMARK  137  A    between atoms: _330  and  _333
REMARK  138  A    between atoms: _336  and  _338
REMARK  139  A    between atoms: _338  and  _339
REMARK  140  A    between atoms: _342  and  _344
REMARK  141  A    between atoms: _344  and  _345
REMARK  142  A    between atoms: _344  and  _347
REMARK  143  A    between atoms: _347  and  _348
REMARK  144  A    between atoms: _348  and  _349
REMARK  145  A    between atoms: _349  and  _350
REMARK  146  A    between atoms: _359  and  _361
REMARK  147  A    between atoms: _361  and  _362
REMARK  148  A    between atoms: _361  and  _364
REMARK  149  A    between atoms: _364  and  _365
REMARK  150  A    between atoms: _365  and  _366
REMARK  151  A    between atoms: _366  and  _367
REMARK  152  A    between atoms: _376  and  _378
REMARK  153  A    between atoms: _378  and  _379
REMARK  154  A    between atoms: _378  and  _381
REMARK  155  A    between atoms: _381  and  _382
REMARK  156  A    between atoms: _385  and  _387
REMARK  157  A    between atoms: _387  and  _388
REMARK  158  A    between atoms: _390  and  _392
REMARK  159  A    between atoms: _392  and  _393
REMARK  160  A    between atoms: _392  and  _395
REMARK  161  A    between atoms: _395  and  _396
REMARK  162  A    between atoms: _396  and  _397
REMARK  163  A    between atoms: _400  and  _402
REMARK  164  A    between atoms: _402  and  _403
REMARK  165  A    between atoms: _402  and  _405
REMARK  166  A    between atoms: _405  and  _406
REMARK  167  A    between atoms: _408  and  _410
REMARK  168  A    between atoms: _410  and  _411
REMARK  169  A    between atoms: _410  and  _413
REMARK  170  A    between atoms: _413  and  _414
REMARK  171  A    between atoms: _417  and  _419
REMARK  172  A    between atoms: _419  and  _420
REMARK  173  A    between atoms: _419  and  _422
REMARK  174  A    between atoms: _422  and  _423
REMARK  175  A    between atoms: _423  and  _424
REMARK  176  A    between atoms: _429  and  _431
REMARK  177  A    between atoms: _431  and  _432
REMARK  178  A    between atoms: _431  and  _434
REMARK  179  A    between atoms: _434  and  _435
REMARK  180  A    between atoms: _438  and  _440
REMARK  181  A    between atoms: _440  and  _441
REMARK  182  A    between atoms: _440  and  _443
REMARK  183  A    between atoms: _443  and  _444
REMARK  184  A    between atoms: _449  and  _451
REMARK  185  A    between atoms: _451  and  _452
REMARK  186  A    between atoms: _451  and  _454
REMARK  187  A    between atoms: _457  and  _459
REMARK  188  A    between atoms: _459  and  _460
REMARK  189  A    between atoms: _459  and  _462
REMARK  190  A    between atoms: _462  and  _463
REMARK  191  A    between atoms: _466  and  _468
REMARK  192  A    between atoms: _468  and  _469
REMARK  193  A    between atoms: _468  and  _471
REMARK  194  A    between atoms: _474  and  _476
REMARK  195  A    between atoms: _476  and  _477
REMARK  196  A    between atoms: _476  and  _479
REMARK  197  A    between atoms: _479  and  _480
REMARK  198  A    between atoms: _486  and  _488
REMARK  199  A    between atoms: _488  and  _489
REMARK  200  A    between atoms: _492  and  _494
REMARK  201  A    between atoms: _494  and  _495
REMARK  202  A    between atoms: _494  and  _497
REMARK  203  A    between atoms: _497  and  _498
REMARK  204  A    between atoms: _501  and  _503
REMARK  205  A    between atoms: _503  and  _504
REMARK  206  A    between atoms: _503  and  _506
REMARK  207  A    between atoms: _506  and  _507
REMARK  208  A    between atoms: _510  and  _512
REMARK  209  A    between atoms: _512  and  _513
REMARK  210  A    between atoms: _512  and  _515
REMARK  211  A    between atoms: _515  and  _516
REMARK  212  A    between atoms: _516  and  _517
REMARK  213  A    between atoms: _520  and  _522
REMARK  214  A    between atoms: _522  and  _523
REMARK  215  A    between atoms: _526  and  _528
REMARK  216  A    between atoms: _528  and  _529
REMARK  217  A    between atoms: _532  and  _534
REMARK  218  A    between atoms: _534  and  _535
REMARK  219  A    between atoms: _534  and  _537
REMARK  220  A    between atoms: _537  and  _538
REMARK  221  A    between atoms: _543  and  _544
REMARK                            x       y       z     vdW  Elec       q    Type
REMARK                         _______ _______ _______ _____ _____    ______ ____
ROOT
ATOM      1  O   HOH     1      49.245   5.899  47.808  0.00  0.00    +0.000 OA
ENDROOT
TORSDOF 0
REMARK  Name = ../refined-set-2016/3acx/3acx_pocket.pdb
REMARK  221 active torsions:
REMARK  status: ('A' for Active; 'I' for Inactive)
REMARK    1  A    between atoms: _1  and  _3
REMARK    2  A    between atoms: _3  and  _4
REMARK    3  A    between atoms: _3  and  _6
REMARK    4  A    between atoms: _6  and  _7
REMARK    5  A    between atoms: _10  and  _12
REMARK    6  A    between atoms: _12  and  _13
REMARK    7  A    between atoms: _12  and  _15
REMARK    8  A    between atoms: _15  and  _16
REMARK    9  A    between atoms: _16  and  _17
REMARK   10  A    between atoms: _19  and  _21
REMARK   11  A    between atoms: _21  and  _22
REMARK   12  A    between atoms: _21  and  _24
REMARK   13  A    between atoms: _24  and  _25
REMARK   14  A    between atoms: _30  and  _32
REMARK   15  A    between atoms: _32  and  _33
REMARK   16  A    between atoms: _32  and  _35
REMARK   17  A    between atoms: _35  and  _36
REMARK   18  A    between atoms: _38  and  _40
REMARK   19  A    between atoms: _40  and  _41
REMARK   20  A    between atoms: _40  and  _43
REMARK   21  A    between atoms: _43  and  _44
REMARK   22  A    between atoms: _46  and  _48
REMARK   23  A    between atoms: _48  and  _49
REMARK   24  A    between atoms: _48  and  _51
REMARK   25  A    between atoms: _51  and  _52
REMARK   26  A    between atoms: _58  and  _60
REMARK   27  A    between atoms: _60  and  _61
REMARK   28  A    between atoms: _60  and  _63
REMARK   29  A    between atoms: _63  and  _64
REMARK   30  A    between atoms: _66  and  _68
REMARK   31  A    between atoms: _68  and  _69
REMARK   32  A    between atoms: _68  and  _71
REMARK   33  A    between atoms: _71  and  _72
REMARK   34  A    between atoms: _78  and  _80
REMARK   35  A    between atoms: _80  and  _81
REMARK   36  A    between atoms: _80  and  _83
REMARK   37  A    between atoms: _86  and  _88
REMARK   38  A    between atoms: _88  and  _89
REMARK   39  A    between atoms: _88  and  _91
REMARK   40  A    between atoms: _91  and  _92
REMARK   41  A    between atoms: _102  and  _104
REMARK   42  A    between atoms: _104  and  _105
REMARK   43  A    between atoms: _104  and  _107
REMARK   44  A    between atoms: _107  and  _108
REMARK   45  A    between atoms: _111  and  _113
REMARK   46  A    between atoms: _113  and  _114
REMARK   47  A    between atoms: _113  and  _116
REMARK   48  A    between atoms: _116  and  _117
REMARK   49  A    between atoms: _122  and  _123
REMARK   50  A    between atoms: _125  and  _127
REMARK   51  A    between atoms: _127  and  _128
REMARK   52  A    between atoms: _131  and  _133
REMARK   53  A    between atoms: _133  and  _134
REMARK   54  A    between atoms: _133  and  _136
REMARK   55  A    between atoms: _139  and  _141
REMARK   56  A    between atoms: _141  and  _142
REMARK   57  A    between atoms: _141  and  _144
REMARK   58  A    between atoms: _146  and  _148
REMARK   59  A    between atoms: _148  and  _149
REMARK   60  A    between atoms: _148  and  _151
REMARK   61  A    between atoms: _151  and  _152
REMARK   62  A    between atoms: _152  and  _153
REMARK   63  A    between atoms: _153  and  _154
REMARK   64  A    between atoms: _163  and  _165
REMARK   65  A    between atoms: _165  and  _166
REMARK   66  A    between atoms: _165  and  _168
REMARK   67  A    between atoms: _168  and  _169
REMARK   68  A    between atoms: _169  and  _170
REMARK   69  A    between atoms: _170  and  _171
REMARK   70  A    between atoms: _171  and  _172
REMARK   71  A    between atoms: _176  and  _178
REMARK   72  A    between atoms: _178  and  _179
REMARK   73  A    between atoms: _178  and  _181
REMARK   74  A    between atoms: _181  and  _182
REMARK   75  A    between atoms: _185  and  _187
REMARK   76  A    between atoms: _187  and  _188
REMARK   77  A    between atoms: _187  and  _190
REMARK   78  A    between atoms: _190  and  _191
REMARK   79  A    between atoms: _194  and  _196
REMARK   80  A    between atoms: _196  and  _197
REMARK   81  A    between atoms: _196  and  _199
REMARK   82  A    between atoms: _199  and  _200
REMARK   83  A    between atoms: _203  and  _205
REMARK   84  A    between atoms: _205  and  _206
REMARK   85  A    between atoms: _205  and  _208
REMARK   86  A    between atoms: _208  and  _209
REMARK   87  A    between atoms: _212  and  _214
REMARK   88  A    between atoms: _214  and  _215
REMARK   89  A    between atoms: _214  and  _217
REMARK   90  A    between atoms: _219  and  _221
REMARK   91  A    between atoms: _221  and  _222
REMARK   92  A    between atoms: _221  and  _224
REMARK   93  A    between atoms: _227  and  _229
REMARK   94  A    between atoms: _229  and  _230
REMARK   95  A    between atoms: _233  and  _235
REMARK   96  A    between atoms: _235  and  _236
REMARK   97  A    between atoms: _238  and  _240
REMARK   98  A    between atoms: _240  and  _241
REMARK   99  A    between atoms: _240  and  _243
REMARK  100  A    between atoms: _243  and  _244
REMARK  101  A    between atoms: _247  and  _249
REMARK  102  A    between atoms: _249  and  _250
REMARK  103  A    between atoms: _249  and  _252
REMARK  104  A    between atoms: _255  and  _257
REMARK  105  A    between atoms: _257  and  _258
REMARK  106  A    between atoms: _260  and  _262
REMARK  107  A    between atoms: _262  and  _263
REMARK  108  A    between atoms: _262  and  _265
REMARK  109  A    between atoms: _265  and  _266
REMARK  110  A    between atoms: _266  and  _267
REMARK  111  A    between atoms: _270  and  _272
REMARK  112  A    between atoms: _272  and  _273
REMARK  113  A    between atoms: _272  and  _275
REMARK  114  A    between atoms: _278  and  _280
REMARK  115  A    between atoms: _280  and  _281
REMARK  116  A    between atoms: _280  and  _283
REMARK  117  A    between atoms: _283  and  _284
REMARK  118  A    between atoms: _287  and  _289
REMARK  119  A    between atoms: _289  and  _290
REMARK  120  A    between atoms: _289  and  _292
REMARK  121  A    between atoms: _292  and  _293
REMARK  122  A    between atoms: _296  and  _298
REMARK  123  A    between atoms: _298  and  _299
REMARK  124  A    between atoms: _298  and  _301
REMARK  125  A    between atoms: _301  and  _302
REMARK  126  A    between atoms: _305  and  _307
REMARK  127  A    between atoms: _307  and  _308
REMARK  128  A    between atoms: _307  and  _310
REMARK  129  A    between atoms: _310  and  _311
REMARK  130  A    between atoms: _314  and  _316
REMARK  131  A    between atoms: _316  and  _317
REMARK  132  A    between atoms: _316  and  _319
REMARK  133  A    between atoms: _319  and  _320
REMARK  134  A    between atoms: _325  and  _326
REMARK  135  A    between atoms: _328  and  _330
REMARK  136  A    between atoms: _330  and  _331
REMARK  137  A    between atoms: _330  and  _333
REMARK  138  A    between atoms: _336  and  _338
REMARK  139  A    between atoms: _338  and  _339
REMARK  140  A    between atoms: _342  and  _344
REMARK  141  A    between atoms: _344  and  _345
REMARK  142  A    between atoms: _344  and  _347
REMARK  143  A    between atoms: _347  and  _348
REMARK  144  A    between atoms: _348  and  _349
REMARK  145  A    between atoms: _349  and  _350
REMARK  146  A    between atoms: _359  and  _361
REMARK  147  A    between atoms: _361  and  _362
REMARK  148  A    between atoms: _361  and  _364
REMARK  149  A    between atoms: _364  and  _365
REMARK  150  A    between atoms: _365  and  _366
REMARK  151  A    between atoms: _366  and  _367
REMARK  152  A    between atoms: _376  and  _378
REMARK  153  A    between atoms: _378  and  _379
REMARK  154  A    between atoms: _378  and  _381
REMARK  155  A    between atoms: _381  and  _382
REMARK  156  A    between atoms: _385  and  _387
REMARK  157  A    between atoms: _387  and  _388
REMARK  158  A    between atoms: _390  and  _392
REMARK  159  A    between atoms: _392  and  _393
REMARK  160  A    between atoms: _392  and  _395
REMARK  161  A    between atoms: _395  and  _396
REMARK  162  A    between atoms: _396  and  _397
REMARK  163  A    between atoms: _400  and  _402
REMARK  164  A    between atoms: _402  and  _403
REMARK  165  A    between atoms: _402  and  _405
REMARK  166  A    between atoms: _405  and  _406
REMARK  167  A    between atoms: _408  and  _410
REMARK  168  A    between atoms: _410  and  _411
REMARK  169  A    between atoms: _410  and  _413
REMARK  170  A    between atoms: _413  and  _414
REMARK  171  A    between atoms: _417  and  _419
REMARK  172  A    between atoms: _419  and  _420
REMARK  173  A    between atoms: _419  and  _422
REMARK  174  A    between atoms: _422  and  _423
REMARK  175  A    between atoms: _423  and  _424
REMARK  176  A    between atoms: _429  and  _431
REMARK  177  A    between atoms: _431  and  _432
REMARK  178  A    between atoms: _431  and  _434
REMARK  179  A    between atoms: _434  and  _435
REMARK  180  A    between atoms: _438  and  _440
REMARK  181  A    between atoms: _440  and  _441
REMARK  182  A    between atoms: _440  and  _443
REMARK  183  A    between atoms: _443  and  _444
REMARK  184  A    between atoms: _449  and  _451
REMARK  185  A    between atoms: _451  and  _452
REMARK  186  A    between atoms: _451  and  _454
REMARK  187  A    between atoms: _457  and  _459
REMARK  188  A    between atoms: _459  and  _460
REMARK  189  A    between atoms: _459  and  _462
REMARK  190  A    between atoms: _462  and  _463
REMARK  191  A    between atoms: _466  and  _468
REMARK  192  A    between atoms: _468  and  _469
REMARK  193  A    between atoms: _468  and  _471
REMARK  194  A    between atoms: _474  and  _476
REMARK  195  A    between atoms: _476  and  _477
REMARK  196  A    between atoms: _476  and  _479
REMARK  197  A    between atoms: _479  and  _480
REMARK  198  A    between atoms: _486  and  _488
REMARK  199  A    between atoms: _488  and  _489
REMARK  200  A    between atoms: _492  and  _494
REMARK  201  A    between atoms: _494  and  _495
REMARK  202  A    between atoms: _494  and  _497
REMARK  203  A    between atoms: _497  and  _498
REMARK  204  A    between atoms: _501  and  _503
REMARK  205  A    between atoms: _503  and  _504
REMARK  206  A    between atoms: _503  and  _506
REMARK  207  A    between atoms: _506  and  _507
REMARK  208  A    between atoms: _510  and  _512
REMARK  209  A    between atoms: _512  and  _513
REMARK  210  A    between atoms: _512  and  _515
REMARK  211  A    between atoms: _515  and  _516
REMARK  212  A    between atoms: _516  and  _517
REMARK  213  A    between atoms: _520  and  _522
REMARK  214  A    between atoms: _522  and  _523
REMARK  215  A    between atoms: _526  and  _528
REMARK  216  A    between atoms: _528  and  _529
REMARK  217  A    between atoms: _532  and  _534
REMARK  218  A    between atoms: _534  and  _535
REMARK  219  A    between atoms: _534  and  _537
REMARK  220  A    between atoms: _537  and  _538
REMARK  221  A    between atoms: _543  and  _544
REMARK                            x       y       z     vdW  Elec       q    Type
REMARK                         _______ _______ _______ _____ _____    ______ ____
ROOT
ATOM      1  O   HOH     1      57.459   4.599  52.268  0.00  0.00    +0.000 OA
ENDROOT
TORSDOF 0
