REMARK  Name = ../refined-set-2016/3ebp/3ebp_pocket.pdb
REMARK  125 active torsions:
REMARK  status: ('A' for Active; 'I' for Inactive)
REMARK    1  A    between atoms: _2  and  _3
REMARK    2  A    between atoms: _8  and  _10
REMARK    3  A    between atoms: _10  and  _11
REMARK    4  A    between atoms: _10  and  _13
REMARK    5  A    between atoms: _13  and  _14
REMARK    6  A    between atoms: _19  and  _21
REMARK    7  A    between atoms: _21  and  _22
REMARK    8  A    between atoms: _21  and  _24
REMARK    9  A    between atoms: _24  and  _25
REMARK   10  A    between atoms: _28  and  _30
REMARK   11  A    between atoms: _30  and  _31
REMARK   12  A    between atoms: _30  and  _33
REMARK   13  A    between atoms: _33  and  _34
REMARK   14  A    between atoms: _39  and  _41
REMARK   15  A    between atoms: _41  and  _42
REMARK   16  A    between atoms: _41  and  _44
REMARK   17  A    between atoms: _44  and  _45
REMARK   18  A    between atoms: _51  and  _53
REMARK   19  A    between atoms: _53  and  _54
REMARK   20  A    between atoms: _53  and  _56
REMARK   21  A    between atoms: _56  and  _57
REMARK   22  A    between atoms: _63  and  _65
REMARK   23  A    between atoms: _65  and  _66
REMARK   24  A    between atoms: _65  and  _68
REMARK   25  A    between atoms: _68  and  _69
REMARK   26  A    between atoms: _69  and  _70
REMARK   27  A    between atoms: _73  and  _75
REMARK   28  A    between atoms: _75  and  _76
REMARK   29  A    between atoms: _75  and  _78
REMARK   30  A    between atoms: _78  and  _79
REMARK   31  A    between atoms: _82  and  _84
REMARK   32  A    between atoms: _84  and  _85
REMARK   33  A    between atoms: _84  and  _87
REMARK   34  A    between atoms: _87  and  _88
REMARK   35  A    between atoms: _92  and  _93
REMARK   36  A    between atoms: _98  and  _100
REMARK   37  A    between atoms: _100  and  _101
REMARK   38  A    between atoms: _100  and  _103
REMARK   39  A    between atoms: _103  and  _104
REMARK   40  A    between atoms: _104  and  _105
REMARK   41  A    between atoms: _108  and  _110
REMARK   42  A    between atoms: _110  and  _111
REMARK   43  A    between atoms: _114  and  _116
REMARK   44  A    between atoms: _116  and  _117
REMARK   45  A    between atoms: _116  and  _119
REMARK   46  A    between atoms: _119  and  _120
REMARK   47  A    between atoms: _123  and  _125
REMARK   48  A    between atoms: _125  and  _126
REMARK   49  A    between atoms: _125  and  _128
REMARK   50  A    between atoms: _128  and  _129
REMARK   51  A    between atoms: _129  and  _130
REMARK   52  A    between atoms: _130  and  _131
REMARK   53  A    between atoms: _140  and  _142
REMARK   54  A    between atoms: _142  and  _143
REMARK   55  A    between atoms: _142  and  _145
REMARK   56  A    between atoms: _145  and  _146
REMARK   57  A    between atoms: _149  and  _151
REMARK   58  A    between atoms: _151  and  _152
REMARK   59  A    between atoms: _151  and  _154
REMARK   60  A    between atoms: _154  and  _155
REMARK   61  A    between atoms: _160  and  _162
REMARK   62  A    between atoms: _162  and  _163
REMARK   63  A    between atoms: _162  and  _165
REMARK   64  A    between atoms: _165  and  _166
REMARK   65  A    between atoms: _166  and  _167
REMARK   66  A    between atoms: _170  and  _172
REMARK   67  A    between atoms: _172  and  _173
REMARK   68  A    between atoms: _172  and  _175
REMARK   69  A    between atoms: _175  and  _176
REMARK   70  A    between atoms: _181  and  _182
REMARK   71  A    between atoms: _184  and  _186
REMARK   72  A    between atoms: _186  and  _187
REMARK   73  A    between atoms: _186  and  _189
REMARK   74  A    between atoms: _189  and  _190
REMARK   75  A    between atoms: _190  and  _191
REMARK   76  A    between atoms: _191  and  _192
REMARK   77  A    between atoms: _192  and  _193
REMARK   78  A    between atoms: _197  and  _199
REMARK   79  A    between atoms: _199  and  _200
REMARK   80  A    between atoms: _203  and  _205
REMARK   81  A    between atoms: _205  and  _206
REMARK   82  A    between atoms: _210  and  _211
REMARK   83  A    between atoms: _216  and  _218
REMARK   84  A    between atoms: _218  and  _219
REMARK   85  A    between atoms: _221  and  _223
REMARK   86  A    between atoms: _223  and  _224
REMARK   87  A    between atoms: _223  and  _226
REMARK   88  A    between atoms: _226  and  _227
REMARK   89  A    between atoms: _232  and  _233
REMARK   90  A    between atoms: _235  and  _237
REMARK   91  A    between atoms: _237  and  _238
REMARK   92  A    between atoms: _237  and  _240
REMARK   93  A    between atoms: _240  and  _241
REMARK   94  A    between atoms: _246  and  _248
REMARK   95  A    between atoms: _248  and  _249
REMARK   96  A    between atoms: _248  and  _251
REMARK   97  A    between atoms: _251  and  _252
REMARK   98  A    between atoms: _252  and  _253
REMARK   99  A    between atoms: _255  and  _257
REMARK  100  A    between atoms: _257  and  _258
REMARK  101  A    between atoms: _261  and  _263
REMARK  102  A    between atoms: _263  and  _264
REMARK  103  A    between atoms: _263  and  _266
REMARK  104  A    between atoms: _266  and  _267
REMARK  105  A    between atoms: _267  and  _268
REMARK  106  A    between atoms: _268  and  _269
REMARK  107  A    between atoms: _269  and  _270
REMARK  108  A    between atoms: _274  and  _276
REMARK  109  A    between atoms: _276  and  _277
REMARK  110  A    between atoms: _276  and  _279
REMARK  111  A    between atoms: _279  and  _280
REMARK  112  A    between atoms: _283  and  _285
REMARK  113  A    between atoms: _285  and  _286
REMARK  114  A    between atoms: _285  and  _288
REMARK  115  A    between atoms: _288  and  _289
REMARK  116  A    between atoms: _294  and  _296
REMARK  117  A    between atoms: _296  and  _297
REMARK  118  A    between atoms: _296  and  _299
REMARK  119  A    between atoms: _299  and  _300
REMARK  120  A    between atoms: _300  and  _301
REMARK  121  A    between atoms: _301  and  _302
REMARK  122  A    between atoms: _311  and  _313
REMARK  123  A    between atoms: _313  and  _314
REMARK  124  A    between atoms: _313  and  _316
REMARK  125  A    between atoms: _316  and  _317
REMARK                            x       y       z     vdW  Elec       q    Type
REMARK                         _______ _______ _______ _____ _____    ______ ____
ROOT
ATOM      1  CA  ASN A   4      36.765  27.892  30.396  0.00  0.00    +0.158 C 
ENDROOT
BRANCH   1   2
ATOM      2  C   ASN A   4      37.778  29.022  30.600  0.00  0.00    +0.241 C 
ATOM      3  N   PHE A   5      38.090  29.307  31.862  0.00  0.00    -0.297 N 
ATOM      4  H   PHE A   5      37.632  28.773  32.628  0.00  0.00    +0.150 HD
ATOM      5  O   ASN A   4      38.254  29.623  29.638  0.00  0.00    -0.273 OA
BRANCH   3   6
ATOM      6  CA  PHE A   5      39.056  30.347  32.201  0.00  0.00    +0.153 C 
BRANCH   6   7
ATOM      7  C   PHE A   5      39.756  29.998  33.504  0.00  0.00    +0.241 C 
ATOM      8  O   PHE A   5      39.106  29.652  34.496  0.00  0.00    -0.273 OA
ATOM      9  N   PHE A   6      41.083  30.084  33.484  0.00  0.00    -0.297 N 
ATOM     10  H   PHE A   6      41.553  30.374  32.603  0.00  0.00    +0.150 HD
BRANCH   9  11
ATOM     11  CA  PHE A   6      41.900  29.787  34.650  0.00  0.00    +0.153 C 
BRANCH  11  12
ATOM     12  C   PHE A   6      42.184  31.063  35.449  0.00  0.00    +0.241 C 
ATOM     13  N   GLU A   7      41.803  31.035  36.722  0.00  0.00    -0.298 N 
ATOM     14  H   GLU A   7      41.252  30.218  37.055  0.00  0.00    +0.150 HD
ATOM     15  O   PHE A   6      42.710  32.043  34.916  0.00  0.00    -0.273 OA
BRANCH  13  16
ATOM     16  CA  GLU A   7      42.119  32.092  37.676  0.00  0.00    +0.137 C 
BRANCH  16  17
ATOM     17  C   GLU A   7      43.027  31.473  38.741  0.00  0.00    +0.227 C 
ATOM     18  O   GLU A   7      42.617  30.559  39.467  0.00  0.00    -0.286 OA
ENDBRANCH  16  17
BRANCH  16  19
ATOM     19  CB  GLU A   7      40.828  32.643  38.298  0.00  0.00    +0.039 C 
BRANCH  19  20
ATOM     20  CG  GLU A   7      40.942  34.063  38.840  0.00  0.00    +0.116 C 
BRANCH  20  21
ATOM     21  CD  GLU A   7      39.675  34.550  39.535  0.00  0.00    +0.365 C 
ATOM     22  OE2 GLU A   7      39.782  35.475  40.374  0.00  0.00    -0.246 OA
ATOM     23  OE1 GLU A   7      38.575  34.017  39.253  0.00  0.00    -0.246 OA
ENDBRANCH  20  21
ENDBRANCH  19  20
ENDBRANCH  16  19
ENDBRANCH  13  16
ENDBRANCH  11  12
BRANCH  11  24
ATOM     24  CB  PHE A   6      43.201  29.092  34.223  0.00  0.00    +0.055 C 
BRANCH  24  25
ATOM     25  CG  PHE A   6      44.208  28.934  35.335  0.00  0.00    -0.020 A 
ATOM     26  CD2 PHE A   6      43.898  28.206  36.478  0.00  0.00    -0.004 A 
ATOM     27  CE2 PHE A   6      44.830  28.062  37.508  0.00  0.00    -0.000 A 
ATOM     28  CZ  PHE A   6      46.081  28.651  37.395  0.00  0.00    -0.000 A 
ATOM     29  CE1 PHE A   6      46.403  29.384  36.261  0.00  0.00    -0.000 A 
ATOM     30  CD1 PHE A   6      45.465  29.525  35.238  0.00  0.00    -0.004 A 
ENDBRANCH  24  25
ENDBRANCH  11  24
ENDBRANCH   9  11
ENDBRANCH   6   7
BRANCH   6  31
ATOM     31  CB  PHE A   5      38.378  31.717  32.304  0.00  0.00    +0.055 C 
BRANCH  31  32
ATOM     32  CG  PHE A   5      39.320  32.845  32.656  0.00  0.00    -0.020 A 
ATOM     33  CD2 PHE A   5      39.243  33.468  33.897  0.00  0.00    -0.004 A 
ATOM     34  CE2 PHE A   5      40.109  34.515  34.232  0.00  0.00    -0.000 A 
ATOM     35  CZ  PHE A   5      41.062  34.947  33.313  0.00  0.00    -0.000 A 
ATOM     36  CE1 PHE A   5      41.145  34.332  32.064  0.00  0.00    -0.000 A 
ATOM     37  CD1 PHE A   5      40.274  33.289  31.743  0.00  0.00    -0.004 A 
ENDBRANCH  31  32
ENDBRANCH   6  31
ENDBRANCH   3   6
ENDBRANCH   1   2
BRANCH   1  39
ATOM     38  C   ASP A   3      34.890  29.146  31.385  0.00  0.00    +0.241 C 
ATOM     39  N   ASN A   4      35.590  28.015  31.268  0.00  0.00    -0.297 N 
ATOM     40  H   ASN A   4      35.290  27.185  31.818  0.00  0.00    +0.150 HD
ATOM     41  O   ASP A   3      35.152  30.178  30.764  0.00  0.00    -0.273 OA
BRANCH  38  42
ATOM     42  CA  ASP A   3      33.722  29.118  32.360  0.00  0.00    +0.160 C 
BRANCH  42  45
ATOM     43  C   ASN A   2      34.343  29.821  34.596  0.00  0.00    +0.241 C 
ATOM     44  O   ASN A   2      34.496  28.656  34.974  0.00  0.00    -0.273 OA
ATOM     45  N   ASP A   3      33.952  30.140  33.370  0.00  0.00    -0.297 N 
ATOM     46  H   ASP A   3      33.807  31.140  33.125  0.00  0.00    +0.150 HD
BRANCH  43  47
ATOM     47  CA  ASN A   2      34.595  30.987  35.539  0.00  0.00    +0.158 C 
BRANCH  47  49
ATOM     48  C   PRO A   1      32.709  31.462  37.019  0.00  0.00    +0.239 C 
ATOM     49  N   ASN A   2      33.861  30.839  36.792  0.00  0.00    -0.297 N 
ATOM     50  H   ASN A   2      34.253  30.224  37.533  0.00  0.00    +0.150 HD
ATOM     51  O   PRO A   1      32.145  32.162  36.180  0.00  0.00    -0.274 OA
BRANCH  48  56
ATOM     52  N   PRO A   1      33.051  31.089  39.478  0.00  0.00    -0.210 NA
ATOM     53  CD  PRO A   1      33.339  32.367  40.156  0.00  0.00    +0.089 C 
ATOM     54  CG  PRO A   1      32.341  33.330  39.554  0.00  0.00    +0.021 C 
ATOM     55  CB  PRO A   1      31.314  32.514  38.834  0.00  0.00    +0.028 C 
ATOM     56  CA  PRO A   1      32.076  31.258  38.401  0.00  0.00    +0.149 C 
ENDBRANCH  48  56
ENDBRANCH  47  49
BRANCH  47  57
ATOM     57  CB  ASN A   2      36.095  31.112  35.811  0.00  0.00    +0.114 C 
BRANCH  57  58
ATOM     58  CG  ASN A   2      36.437  32.319  36.670  0.00  0.00    +0.222 C 
ATOM     59  ND2 ASN A   2      37.408  32.150  37.560  0.00  0.00    -0.329 N 
ATOM     60 HD21 ASN A   2      37.695  32.940  38.173  0.00  0.00    +0.145 HD
ATOM     61 HD22 ASN A   2      37.881  31.228  37.644  0.00  0.00    +0.145 HD
ATOM     62  OD1 ASN A   2      35.841  33.394  36.528  0.00  0.00    -0.275 OA
ENDBRANCH  57  58
ENDBRANCH  47  57
ENDBRANCH  43  47
ENDBRANCH  42  45
BRANCH  42  63
ATOM     63  CB  ASP A   3      32.403  29.383  31.634  0.00  0.00    +0.143 C 
BRANCH  63  64
ATOM     64  CG  ASP A   3      32.090  28.333  30.586  0.00  0.00    +0.367 C 
ATOM     65  OD2 ASP A   3      31.539  27.267  30.943  0.00  0.00    -0.246 OA
ATOM     66  OD1 ASP A   3      32.387  28.584  29.399  0.00  0.00    -0.246 OA
ENDBRANCH  63  64
ENDBRANCH  42  63
ENDBRANCH  38  42
ENDBRANCH   1  39
BRANCH   1  67
ATOM     67  CB  ASN A   4      36.361  27.796  28.912  0.00  0.00    +0.114 C 
BRANCH  67  68
ATOM     68  CG  ASN A   4      35.995  26.385  28.493  0.00  0.00    +0.222 C 
ATOM     69  OD1 ASN A   4      36.577  25.404  28.966  0.00  0.00    -0.275 OA
ATOM     70  ND2 ASN A   4      35.031  26.273  27.599  0.00  0.00    -0.329 N 
ATOM     71 HD21 ASN A   4      34.736  25.332  27.268  0.00  0.00    +0.145 HD
ATOM     72 HD22 ASN A   4      34.566  27.125  27.226  0.00  0.00    +0.145 HD
ENDBRANCH  67  68
ENDBRANCH   1  67
TORSDOF 26
REMARK  Name = ../refined-set-2016/3ebp/3ebp_pocket.pdb
REMARK  125 active torsions:
REMARK  status: ('A' for Active; 'I' for Inactive)
REMARK    1  A    between atoms: _2  and  _3
REMARK    2  A    between atoms: _8  and  _10
REMARK    3  A    between atoms: _10  and  _11
REMARK    4  A    between atoms: _10  and  _13
REMARK    5  A    between atoms: _13  and  _14
REMARK    6  A    between atoms: _19  and  _21
REMARK    7  A    between atoms: _21  and  _22
REMARK    8  A    between atoms: _21  and  _24
REMARK    9  A    between atoms: _24  and  _25
REMARK   10  A    between atoms: _28  and  _30
REMARK   11  A    between atoms: _30  and  _31
REMARK   12  A    between atoms: _30  and  _33
REMARK   13  A    between atoms: _33  and  _34
REMARK   14  A    between atoms: _39  and  _41
REMARK   15  A    between atoms: _41  and  _42
REMARK   16  A    between atoms: _41  and  _44
REMARK   17  A    between atoms: _44  and  _45
REMARK   18  A    between atoms: _51  and  _53
REMARK   19  A    between atoms: _53  and  _54
REMARK   20  A    between atoms: _53  and  _56
REMARK   21  A    between atoms: _56  and  _57
REMARK   22  A    between atoms: _63  and  _65
REMARK   23  A    between atoms: _65  and  _66
REMARK   24  A    between atoms: _65  and  _68
REMARK   25  A    between atoms: _68  and  _69
REMARK   26  A    between atoms: _69  and  _70
REMARK   27  A    between atoms: _73  and  _75
REMARK   28  A    between atoms: _75  and  _76
REMARK   29  A    between atoms: _75  and  _78
REMARK   30  A    between atoms: _78  and  _79
REMARK   31  A    between atoms: _82  and  _84
REMARK   32  A    between atoms: _84  and  _85
REMARK   33  A    between atoms: _84  and  _87
REMARK   34  A    between atoms: _87  and  _88
REMARK   35  A    between atoms: _92  and  _93
REMARK   36  A    between atoms: _98  and  _100
REMARK   37  A    between atoms: _100  and  _101
REMARK   38  A    between atoms: _100  and  _103
REMARK   39  A    between atoms: _103  and  _104
REMARK   40  A    between atoms: _104  and  _105
REMARK   41  A    between atoms: _108  and  _110
REMARK   42  A    between atoms: _110  and  _111
REMARK   43  A    between atoms: _114  and  _116
REMARK   44  A    between atoms: _116  and  _117
REMARK   45  A    between atoms: _116  and  _119
REMARK   46  A    between atoms: _119  and  _120
REMARK   47  A    between atoms: _123  and  _125
REMARK   48  A    between atoms: _125  and  _126
REMARK   49  A    between atoms: _125  and  _128
REMARK   50  A    between atoms: _128  and  _129
REMARK   51  A    between atoms: _129  and  _130
REMARK   52  A    between atoms: _130  and  _131
REMARK   53  A    between atoms: _140  and  _142
REMARK   54  A    between atoms: _142  and  _143
REMARK   55  A    between atoms: _142  and  _145
REMARK   56  A    between atoms: _145  and  _146
REMARK   57  A    between atoms: _149  and  _151
REMARK   58  A    between atoms: _151  and  _152
REMARK   59  A    between atoms: _151  and  _154
REMARK   60  A    between atoms: _154  and  _155
REMARK   61  A    between atoms: _160  and  _162
REMARK   62  A    between atoms: _162  and  _163
REMARK   63  A    between atoms: _162  and  _165
REMARK   64  A    between atoms: _165  and  _166
REMARK   65  A    between atoms: _166  and  _167
REMARK   66  A    between atoms: _170  and  _172
REMARK   67  A    between atoms: _172  and  _173
REMARK   68  A    between atoms: _172  and  _175
REMARK   69  A    between atoms: _175  and  _176
REMARK   70  A    between atoms: _181  and  _182
REMARK   71  A    between atoms: _184  and  _186
REMARK   72  A    between atoms: _186  and  _187
REMARK   73  A    between atoms: _186  and  _189
REMARK   74  A    between atoms: _189  and  _190
REMARK   75  A    between atoms: _190  and  _191
REMARK   76  A    between atoms: _191  and  _192
REMARK   77  A    between atoms: _192  and  _193
REMARK   78  A    between atoms: _197  and  _199
REMARK   79  A    between atoms: _199  and  _200
REMARK   80  A    between atoms: _203  and  _205
REMARK   81  A    between atoms: _205  and  _206
REMARK   82  A    between atoms: _210  and  _211
REMARK   83  A    between atoms: _216  and  _218
REMARK   84  A    between atoms: _218  and  _219
REMARK   85  A    between atoms: _221  and  _223
REMARK   86  A    between atoms: _223  and  _224
REMARK   87  A    between atoms: _223  and  _226
REMARK   88  A    between atoms: _226  and  _227
REMARK   89  A    between atoms: _232  and  _233
REMARK   90  A    between atoms: _235  and  _237
REMARK   91  A    between atoms: _237  and  _238
REMARK   92  A    between atoms: _237  and  _240
REMARK   93  A    between atoms: _240  and  _241
REMARK   94  A    between atoms: _246  and  _248
REMARK   95  A    between atoms: _248  and  _249
REMARK   96  A    between atoms: _248  and  _251
REMARK   97  A    between atoms: _251  and  _252
REMARK   98  A    between atoms: _252  and  _253
REMARK   99  A    between atoms: _255  and  _257
REMARK  100  A    between atoms: _257  and  _258
REMARK  101  A    between atoms: _261  and  _263
REMARK  102  A    between atoms: _263  and  _264
REMARK  103  A    between atoms: _263  and  _266
REMARK  104  A    between atoms: _266  and  _267
REMARK  105  A    between atoms: _267  and  _268
REMARK  106  A    between atoms: _268  and  _269
REMARK  107  A    between atoms: _269  and  _270
REMARK  108  A    between atoms: _274  and  _276
REMARK  109  A    between atoms: _276  and  _277
REMARK  110  A    between atoms: _276  and  _279
REMARK  111  A    between atoms: _279  and  _280
REMARK  112  A    between atoms: _283  and  _285
REMARK  113  A    between atoms: _285  and  _286
REMARK  114  A    between atoms: _285  and  _288
REMARK  115  A    between atoms: _288  and  _289
REMARK  116  A    between atoms: _294  and  _296
REMARK  117  A    between atoms: _296  and  _297
REMARK  118  A    between atoms: _296  and  _299
REMARK  119  A    between atoms: _299  and  _300
REMARK  120  A    between atoms: _300  and  _301
REMARK  121  A    between atoms: _301  and  _302
REMARK  122  A    between atoms: _311  and  _313
REMARK  123  A    between atoms: _313  and  _314
REMARK  124  A    between atoms: _313  and  _316
REMARK  125  A    between atoms: _316  and  _317
REMARK                            x       y       z     vdW  Elec       q    Type
REMARK                         _______ _______ _______ _____ _____    ______ ____
ROOT
ATOM      1  CA  THR A   1      39.478  22.929  25.558  0.00  0.00    +0.160 C 
ENDROOT
BRANCH   1   2
ATOM      2  N   THR A   1      39.240  21.728  26.373  0.00  0.00    -0.237 NA
ATOM      3  H   THR A   1      40.049  21.233  26.799  0.00  0.00    +0.142 HD
ENDBRANCH   1   2
BRANCH   1   4
ATOM      4  CB  THR A   1      38.931  24.223  26.246  0.00  0.00    +0.134 C 
ATOM      5  CG2 THR A   1      39.672  24.526  27.540  0.00  0.00    +0.034 C 
BRANCH   4   6
ATOM      6  OG1 THR A   1      39.034  25.343  25.356  0.00  0.00    -0.383 OA
ATOM      7  HG1 THR A   1      38.505  25.163  24.539  0.00  0.00    +0.210 HD
ENDBRANCH   4   6
ENDBRANCH   1   4
BRANCH   1   8
ATOM      8  C   THR A   1      40.947  23.103  25.169  0.00  0.00    +0.227 C 
ATOM      9  O   THR A   1      41.843  22.634  25.874  0.00  0.00    -0.287 OA
ENDBRANCH   1   8
TORSDOF 4
REMARK  Name = ../refined-set-2016/3ebp/3ebp_pocket.pdb
REMARK  125 active torsions:
REMARK  status: ('A' for Active; 'I' for Inactive)
REMARK    1  A    between atoms: _2  and  _3
REMARK    2  A    between atoms: _8  and  _10
REMARK    3  A    between atoms: _10  and  _11
REMARK    4  A    between atoms: _10  and  _13
REMARK    5  A    between atoms: _13  and  _14
REMARK    6  A    between atoms: _19  and  _21
REMARK    7  A    between atoms: _21  and  _22
REMARK    8  A    between atoms: _21  and  _24
REMARK    9  A    between atoms: _24  and  _25
REMARK   10  A    between atoms: _28  and  _30
REMARK   11  A    between atoms: _30  and  _31
REMARK   12  A    between atoms: _30  and  _33
REMARK   13  A    between atoms: _33  and  _34
REMARK   14  A    between atoms: _39  and  _41
REMARK   15  A    between atoms: _41  and  _42
REMARK   16  A    between atoms: _41  and  _44
REMARK   17  A    between atoms: _44  and  _45
REMARK   18  A    between atoms: _51  and  _53
REMARK   19  A    between atoms: _53  and  _54
REMARK   20  A    between atoms: _53  and  _56
REMARK   21  A    between atoms: _56  and  _57
REMARK   22  A    between atoms: _63  and  _65
REMARK   23  A    between atoms: _65  and  _66
REMARK   24  A    between atoms: _65  and  _68
REMARK   25  A    between atoms: _68  and  _69
REMARK   26  A    between atoms: _69  and  _70
REMARK   27  A    between atoms: _73  and  _75
REMARK   28  A    between atoms: _75  and  _76
REMARK   29  A    between atoms: _75  and  _78
REMARK   30  A    between atoms: _78  and  _79
REMARK   31  A    between atoms: _82  and  _84
REMARK   32  A    between atoms: _84  and  _85
REMARK   33  A    between atoms: _84  and  _87
REMARK   34  A    between atoms: _87  and  _88
REMARK   35  A    between atoms: _92  and  _93
REMARK   36  A    between atoms: _98  and  _100
REMARK   37  A    between atoms: _100  and  _101
REMARK   38  A    between atoms: _100  and  _103
REMARK   39  A    between atoms: _103  and  _104
REMARK   40  A    between atoms: _104  and  _105
REMARK   41  A    between atoms: _108  and  _110
REMARK   42  A    between atoms: _110  and  _111
REMARK   43  A    between atoms: _114  and  _116
REMARK   44  A    between atoms: _116  and  _117
REMARK   45  A    between atoms: _116  and  _119
REMARK   46  A    between atoms: _119  and  _120
REMARK   47  A    between atoms: _123  and  _125
REMARK   48  A    between atoms: _125  and  _126
REMARK   49  A    between atoms: _125  and  _128
REMARK   50  A    between atoms: _128  and  _129
REMARK   51  A    between atoms: _129  and  _130
REMARK   52  A    between atoms: _130  and  _131
REMARK   53  A    between atoms: _140  and  _142
REMARK   54  A    between atoms: _142  and  _143
REMARK   55  A    between atoms: _142  and  _145
REMARK   56  A    between atoms: _145  and  _146
REMARK   57  A    between atoms: _149  and  _151
REMARK   58  A    between atoms: _151  and  _152
REMARK   59  A    between atoms: _151  and  _154
REMARK   60  A    between atoms: _154  and  _155
REMARK   61  A    between atoms: _160  and  _162
REMARK   62  A    between atoms: _162  and  _163
REMARK   63  A    between atoms: _162  and  _165
REMARK   64  A    between atoms: _165  and  _166
REMARK   65  A    between atoms: _166  and  _167
REMARK   66  A    between atoms: _170  and  _172
REMARK   67  A    between atoms: _172  and  _173
REMARK   68  A    between atoms: _172  and  _175
REMARK   69  A    between atoms: _175  and  _176
REMARK   70  A    between atoms: _181  and  _182
REMARK   71  A    between atoms: _184  and  _186
REMARK   72  A    between atoms: _186  and  _187
REMARK   73  A    between atoms: _186  and  _189
REMARK   74  A    between atoms: _189  and  _190
REMARK   75  A    between atoms: _190  and  _191
REMARK   76  A    between atoms: _191  and  _192
REMARK   77  A    between atoms: _192  and  _193
REMARK   78  A    between atoms: _197  and  _199
REMARK   79  A    between atoms: _199  and  _200
REMARK   80  A    between atoms: _203  and  _205
REMARK   81  A    between atoms: _205  and  _206
REMARK   82  A    between atoms: _210  and  _211
REMARK   83  A    between atoms: _216  and  _218
REMARK   84  A    between atoms: _218  and  _219
REMARK   85  A    between atoms: _221  and  _223
REMARK   86  A    between atoms: _223  and  _224
REMARK   87  A    between atoms: _223  and  _226
REMARK   88  A    between atoms: _226  and  _227
REMARK   89  A    between atoms: _232  and  _233
REMARK   90  A    between atoms: _235  and  _237
REMARK   91  A    between atoms: _237  and  _238
REMARK   92  A    between atoms: _237  and  _240
REMARK   93  A    between atoms: _240  and  _241
REMARK   94  A    between atoms: _246  and  _248
REMARK   95  A    between atoms: _248  and  _249
REMARK   96  A    between atoms: _248  and  _251
REMARK   97  A    between atoms: _251  and  _252
REMARK   98  A    between atoms: _252  and  _253
REMARK   99  A    between atoms: _255  and  _257
REMARK  100  A    between atoms: _257  and  _258
REMARK  101  A    between atoms: _261  and  _263
REMARK  102  A    between atoms: _263  and  _264
REMARK  103  A    between atoms: _263  and  _266
REMARK  104  A    between atoms: _266  and  _267
REMARK  105  A    between atoms: _267  and  _268
REMARK  106  A    between atoms: _268  and  _269
REMARK  107  A    between atoms: _269  and  _270
REMARK  108  A    between atoms: _274  and  _276
REMARK  109  A    between atoms: _276  and  _277
REMARK  110  A    between atoms: _276  and  _279
REMARK  111  A    between atoms: _279  and  _280
REMARK  112  A    between atoms: _283  and  _285
REMARK  113  A    between atoms: _285  and  _286
REMARK  114  A    between atoms: _285  and  _288
REMARK  115  A    between atoms: _288  and  _289
REMARK  116  A    between atoms: _294  and  _296
REMARK  117  A    between atoms: _296  and  _297
REMARK  118  A    between atoms: _296  and  _299
REMARK  119  A    between atoms: _299  and  _300
REMARK  120  A    between atoms: _300  and  _301
REMARK  121  A    between atoms: _301  and  _302
REMARK  122  A    between atoms: _311  and  _313
REMARK  123  A    between atoms: _313  and  _314
REMARK  124  A    between atoms: _313  and  _316
REMARK  125  A    between atoms: _316  and  _317
REMARK                            x       y       z     vdW  Elec       q    Type
REMARK                         _______ _______ _______ _____ _____    ______ ____
ROOT
ATOM      1  CA  GLU A   3      43.511  31.095  28.940  0.00  0.00    +0.149 C 
ENDROOT
BRANCH   1   4
ATOM      2  C   PRO A   2      44.873  29.559  27.651  0.00  0.00    +0.241 C 
ATOM      3  O   PRO A   2      45.435  29.168  28.672  0.00  0.00    -0.273 OA
ATOM      4  N   GLU A   3      43.910  30.474  27.671  0.00  0.00    -0.297 N 
ATOM      5  H   GLU A   3      43.438  30.751  26.786  0.00  0.00    +0.150 HD
BRANCH   2   9
ATOM      6  C   LEU A   1      43.093  27.990  25.654  0.00  0.00    +0.241 C 
ATOM      7  O   LEU A   1      42.937  27.447  26.748  0.00  0.00    -0.273 OA
ATOM      8  N   PRO A   2      44.155  28.771  25.363  0.00  0.00    -0.272 N 
ATOM      9  CA  PRO A   2      45.273  28.971  26.297  0.00  0.00    +0.152 C 
ATOM     10  CB  PRO A   2      46.205  29.940  25.548  0.00  0.00    +0.031 C 
ATOM     11  CG  PRO A   2      45.380  30.543  24.474  0.00  0.00    +0.024 C 
ATOM     12  CD  PRO A   2      44.365  29.502  24.099  0.00  0.00    +0.094 C 
BRANCH   6  13
ATOM     13  CA  LEU A   1      42.060  27.779  24.548  0.00  0.00    +0.145 C 
BRANCH  13  14
ATOM     14  N   LEU A   1      41.856  26.351  24.302  0.00  0.00    -0.238 NA
ATOM     15  H   LEU A   1      40.925  25.928  24.493  0.00  0.00    +0.142 HD
ENDBRANCH  13  14
BRANCH  13  16
ATOM     16  CB  LEU A   1      40.747  28.478  24.909  0.00  0.00    +0.026 C 
BRANCH  16  17
ATOM     17  CG  LEU A   1      39.627  28.454  23.861  0.00  0.00    +0.002 C 
ATOM     18  CD2 LEU A   1      38.324  28.910  24.491  0.00  0.00    +0.000 C 
ATOM     19  CD1 LEU A   1      39.967  29.292  22.628  0.00  0.00    +0.000 C 
ENDBRANCH  16  17
ENDBRANCH  13  16
ENDBRANCH   6  13
ENDBRANCH   2   9
ENDBRANCH   1   4
BRANCH   1  20
ATOM     20  C   GLU A   3      42.740  30.186  29.903  0.00  0.00    +0.241 C 
ATOM     21  O   GLU A   3      42.551  30.534  31.070  0.00  0.00    -0.273 OA
ATOM     22  N   ALA A   4      42.327  29.016  29.419  0.00  0.00    -0.297 N 
ATOM     23  H   ALA A   4      42.470  28.809  28.410  0.00  0.00    +0.150 HD
BRANCH  22  24
ATOM     24  CA  ALA A   4      41.676  28.011  30.267  0.00  0.00    +0.149 C 
ATOM     25  CB  ALA A   4      40.606  27.264  29.484  0.00  0.00    +0.031 C 
BRANCH  24  26
ATOM     26  C   ALA A   4      42.673  27.019  30.871  0.00  0.00    +0.241 C 
ATOM     27  O   ALA A   4      42.331  26.268  31.786  0.00  0.00    -0.273 OA
ATOM     28  N   LEU A   5      43.903  27.014  30.360  0.00  0.00    -0.298 N 
ATOM     29  H   LEU A   5      44.161  27.723  29.644  0.00  0.00    +0.150 HD
BRANCH  28  30
ATOM     30  CA  LEU A   5      44.898  26.029  30.787  0.00  0.00    +0.137 C 
BRANCH  30  31
ATOM     31  C   LEU A   5      45.473  26.350  32.170  0.00  0.00    +0.227 C 
ATOM     32  O   LEU A   5      45.882  27.478  32.437  0.00  0.00    -0.286 OA
ENDBRANCH  30  31
BRANCH  30  33
ATOM     33  CB  LEU A   5      46.008  25.873  29.735  0.00  0.00    +0.028 C 
BRANCH  33  34
ATOM     34  CG  LEU A   5      45.608  25.520  28.289  0.00  0.00    +0.002 C 
ATOM     35  CD2 LEU A   5      44.476  24.486  28.181  0.00  0.00    +0.000 C 
ATOM     36  CD1 LEU A   5      46.824  25.045  27.495  0.00  0.00    +0.000 C 
ENDBRANCH  33  34
ENDBRANCH  30  33
ENDBRANCH  28  30
ENDBRANCH  24  26
ENDBRANCH  22  24
ENDBRANCH   1  20
BRANCH   1  37
ATOM     37  CB  GLU A   3      42.797  32.442  28.743  0.00  0.00    +0.041 C 
BRANCH  37  38
ATOM     38  CG  GLU A   3      41.837  32.520  27.586  0.00  0.00    +0.116 C 
BRANCH  38  39
ATOM     39  CD  GLU A   3      42.527  32.727  26.245  0.00  0.00    +0.365 C 
ATOM     40  OE2 GLU A   3      43.129  33.797  26.026  0.00  0.00    -0.246 OA
ATOM     41  OE1 GLU A   3      42.449  31.814  25.405  0.00  0.00    -0.246 OA
ENDBRANCH  38  39
ENDBRANCH  37  38
ENDBRANCH   1  37
TORSDOF 16
REMARK  Name = ../refined-set-2016/3ebp/3ebp_pocket.pdb
REMARK  125 active torsions:
REMARK  status: ('A' for Active; 'I' for Inactive)
REMARK    1  A    between atoms: _2  and  _3
REMARK    2  A    between atoms: _8  and  _10
REMARK    3  A    between atoms: _10  and  _11
REMARK    4  A    between atoms: _10  and  _13
REMARK    5  A    between atoms: _13  and  _14
REMARK    6  A    between atoms: _19  and  _21
REMARK    7  A    between atoms: _21  and  _22
REMARK    8  A    between atoms: _21  and  _24
REMARK    9  A    between atoms: _24  and  _25
REMARK   10  A    between atoms: _28  and  _30
REMARK   11  A    between atoms: _30  and  _31
REMARK   12  A    between atoms: _30  and  _33
REMARK   13  A    between atoms: _33  and  _34
REMARK   14  A    between atoms: _39  and  _41
REMARK   15  A    between atoms: _41  and  _42
REMARK   16  A    between atoms: _41  and  _44
REMARK   17  A    between atoms: _44  and  _45
REMARK   18  A    between atoms: _51  and  _53
REMARK   19  A    between atoms: _53  and  _54
REMARK   20  A    between atoms: _53  and  _56
REMARK   21  A    between atoms: _56  and  _57
REMARK   22  A    between atoms: _63  and  _65
REMARK   23  A    between atoms: _65  and  _66
REMARK   24  A    between atoms: _65  and  _68
REMARK   25  A    between atoms: _68  and  _69
REMARK   26  A    between atoms: _69  and  _70
REMARK   27  A    between atoms: _73  and  _75
REMARK   28  A    between atoms: _75  and  _76
REMARK   29  A    between atoms: _75  and  _78
REMARK   30  A    between atoms: _78  and  _79
REMARK   31  A    between atoms: _82  and  _84
REMARK   32  A    between atoms: _84  and  _85
REMARK   33  A    between atoms: _84  and  _87
REMARK   34  A    between atoms: _87  and  _88
REMARK   35  A    between atoms: _92  and  _93
REMARK   36  A    between atoms: _98  and  _100
REMARK   37  A    between atoms: _100  and  _101
REMARK   38  A    between atoms: _100  and  _103
REMARK   39  A    between atoms: _103  and  _104
REMARK   40  A    between atoms: _104  and  _105
REMARK   41  A    between atoms: _108  and  _110
REMARK   42  A    between atoms: _110  and  _111
REMARK   43  A    between atoms: _114  and  _116
REMARK   44  A    between atoms: _116  and  _117
REMARK   45  A    between atoms: _116  and  _119
REMARK   46  A    between atoms: _119  and  _120
REMARK   47  A    between atoms: _123  and  _125
REMARK   48  A    between atoms: _125  and  _126
REMARK   49  A    between atoms: _125  and  _128
REMARK   50  A    between atoms: _128  and  _129
REMARK   51  A    between atoms: _129  and  _130
REMARK   52  A    between atoms: _130  and  _131
REMARK   53  A    between atoms: _140  and  _142
REMARK   54  A    between atoms: _142  and  _143
REMARK   55  A    between atoms: _142  and  _145
REMARK   56  A    between atoms: _145  and  _146
REMARK   57  A    between atoms: _149  and  _151
REMARK   58  A    between atoms: _151  and  _152
REMARK   59  A    between atoms: _151  and  _154
REMARK   60  A    between atoms: _154  and  _155
REMARK   61  A    between atoms: _160  and  _162
REMARK   62  A    between atoms: _162  and  _163
REMARK   63  A    between atoms: _162  and  _165
REMARK   64  A    between atoms: _165  and  _166
REMARK   65  A    between atoms: _166  and  _167
REMARK   66  A    between atoms: _170  and  _172
REMARK   67  A    between atoms: _172  and  _173
REMARK   68  A    between atoms: _172  and  _175
REMARK   69  A    between atoms: _175  and  _176
REMARK   70  A    between atoms: _181  and  _182
REMARK   71  A    between atoms: _184  and  _186
REMARK   72  A    between atoms: _186  and  _187
REMARK   73  A    between atoms: _186  and  _189
REMARK   74  A    between atoms: _189  and  _190
REMARK   75  A    between atoms: _190  and  _191
REMARK   76  A    between atoms: _191  and  _192
REMARK   77  A    between atoms: _192  and  _193
REMARK   78  A    between atoms: _197  and  _199
REMARK   79  A    between atoms: _199  and  _200
REMARK   80  A    between atoms: _203  and  _205
REMARK   81  A    between atoms: _205  and  _206
REMARK   82  A    between atoms: _210  and  _211
REMARK   83  A    between atoms: _216  and  _218
REMARK   84  A    between atoms: _218  and  _219
REMARK   85  A    between atoms: _221  and  _223
REMARK   86  A    between atoms: _223  and  _224
REMARK   87  A    between atoms: _223  and  _226
REMARK   88  A    between atoms: _226  and  _227
REMARK   89  A    between atoms: _232  and  _233
REMARK   90  A    between atoms: _235  and  _237
REMARK   91  A    between atoms: _237  and  _238
REMARK   92  A    between atoms: _237  and  _240
REMARK   93  A    between atoms: _240  and  _241
REMARK   94  A    between atoms: _246  and  _248
REMARK   95  A    between atoms: _248  and  _249
REMARK   96  A    between atoms: _248  and  _251
REMARK   97  A    between atoms: _251  and  _252
REMARK   98  A    between atoms: _252  and  _253
REMARK   99  A    between atoms: _255  and  _257
REMARK  100  A    between atoms: _257  and  _258
REMARK  101  A    between atoms: _261  and  _263
REMARK  102  A    between atoms: _263  and  _264
REMARK  103  A    between atoms: _263  and  _266
REMARK  104  A    between atoms: _266  and  _267
REMARK  105  A    between atoms: _267  and  _268
REMARK  106  A    between atoms: _268  and  _269
REMARK  107  A    between atoms: _269  and  _270
REMARK  108  A    between atoms: _274  and  _276
REMARK  109  A    between atoms: _276  and  _277
REMARK  110  A    between atoms: _276  and  _279
REMARK  111  A    between atoms: _279  and  _280
REMARK  112  A    between atoms: _283  and  _285
REMARK  113  A    between atoms: _285  and  _286
REMARK  114  A    between atoms: _285  and  _288
REMARK  115  A    between atoms: _288  and  _289
REMARK  116  A    between atoms: _294  and  _296
REMARK  117  A    between atoms: _296  and  _297
REMARK  118  A    between atoms: _296  and  _299
REMARK  119  A    between atoms: _299  and  _300
REMARK  120  A    between atoms: _300  and  _301
REMARK  121  A    between atoms: _301  and  _302
REMARK  122  A    between atoms: _311  and  _313
REMARK  123  A    between atoms: _313  and  _314
REMARK  124  A    between atoms: _313  and  _316
REMARK  125  A    between atoms: _316  and  _317
REMARK                            x       y       z     vdW  Elec       q    Type
REMARK                         _______ _______ _______ _____ _____    ______ ____
ROOT
ATOM      1  C   HIS A   3      32.407  35.011  24.210  0.00  0.00    +0.241 C 
ATOM      2  N   GLU A   4      33.597  35.593  24.084  0.00  0.00    -0.297 N 
ATOM      3  H   GLU A   4      34.201  35.721  24.921  0.00  0.00    +0.150 HD
ATOM      4  O   HIS A   3      31.572  34.996  23.300  0.00  0.00    -0.273 OA
ENDROOT
BRANCH   2   5
ATOM      5  CA  GLU A   4      34.060  36.054  22.773  0.00  0.00    +0.149 C 
BRANCH   5   6
ATOM      6  C   GLU A   4      34.165  34.909  21.761  0.00  0.00    +0.241 C 
ATOM      7  N   TYR A   5      34.656  33.747  22.196  0.00  0.00    -0.297 N 
ATOM      8  H   TYR A   5      34.921  33.633  23.195  0.00  0.00    +0.150 HD
ATOM      9  O   GLU A   4      33.789  35.073  20.596  0.00  0.00    -0.273 OA
BRANCH   7  10
ATOM     10  CA  TYR A   5      34.820  32.630  21.256  0.00  0.00    +0.153 C 
BRANCH  10  11
ATOM     11  C   TYR A   5      33.498  32.050  20.750  0.00  0.00    +0.241 C 
ATOM     12  N   LYS A   6      32.455  32.116  21.575  0.00  0.00    -0.298 N 
ATOM     13  H   LYS A   6      32.577  32.555  22.510  0.00  0.00    +0.150 HD
ATOM     14  O   TYR A   5      33.429  31.578  19.614  0.00  0.00    -0.273 OA
BRANCH  12  15
ATOM     15  CA  LYS A   6      31.137  31.586  21.200  0.00  0.00    +0.137 C 
BRANCH  15  16
ATOM     16  C   LYS A   6      30.359  32.540  20.275  0.00  0.00    +0.227 C 
ATOM     17  O   LYS A   6      29.331  32.170  19.707  0.00  0.00    -0.286 OA
ENDBRANCH  15  16
BRANCH  15  18
ATOM     18  CB  LYS A   6      30.311  31.239  22.447  0.00  0.00    +0.028 C 
BRANCH  18  19
ATOM     19  CG  LYS A   6      30.858  30.062  23.262  0.00  0.00    -0.000 C 
BRANCH  19  20
ATOM     20  CD  LYS A   6      30.008  29.819  24.523  0.00  0.00    -0.024 C 
BRANCH  20  21
ATOM     21  CE  LYS A   6      30.627  28.803  25.467  0.00  0.00    -0.086 C 
BRANCH  21  22
ATOM     22  NZ  LYS A   6      30.369  27.386  25.035  0.00  0.00    +0.380 N 
ATOM     23  HZ1 LYS A   6      30.812  26.732  25.712  0.00  0.00    -0.089 HD
ATOM     24  HZ2 LYS A   6      29.344  27.215  25.006  0.00  0.00    -0.089 HD
ATOM     25  HZ3 LYS A   6      30.774  27.234  24.089  0.00  0.00    -0.089 HD
ENDBRANCH  21  22
ENDBRANCH  20  21
ENDBRANCH  19  20
ENDBRANCH  18  19
ENDBRANCH  15  18
ENDBRANCH  12  15
ENDBRANCH  10  11
BRANCH  10  26
ATOM     26  CB  TYR A   5      35.780  31.553  21.788  0.00  0.00    +0.055 C 
BRANCH  26  27
ATOM     27  CG  TYR A   5      35.185  30.428  22.602  0.00  0.00    -0.020 A 
ATOM     28  CD2 TYR A   5      35.175  30.476  23.999  0.00  0.00    -0.001 A 
ATOM     29  CE2 TYR A   5      34.654  29.422  24.750  0.00  0.00    +0.036 A 
ATOM     30  CZ  TYR A   5      34.155  28.303  24.101  0.00  0.00    +0.134 A 
ATOM     31  CE1 TYR A   5      34.165  28.230  22.718  0.00  0.00    +0.036 A 
ATOM     32  CD1 TYR A   5      34.685  29.284  21.980  0.00  0.00    -0.001 A 
BRANCH  30  33
ATOM     33  OH  TYR A   5      33.635  27.248  24.821  0.00  0.00    -0.506 OA
ATOM     34  HH  TYR A   5      33.329  26.543  24.197  0.00  0.00    +0.292 HD
ENDBRANCH  30  33
ENDBRANCH  26  27
ENDBRANCH  10  26
ENDBRANCH   7  10
ENDBRANCH   5   6
BRANCH   5  35
ATOM     35  CB  GLU A   4      35.392  36.797  22.892  0.00  0.00    +0.041 C 
BRANCH  35  36
ATOM     36  CG  GLU A   4      35.221  38.207  23.422  0.00  0.00    +0.116 C 
BRANCH  36  37
ATOM     37  CD  GLU A   4      36.532  38.843  23.833  0.00  0.00    +0.365 C 
ATOM     38  OE2 GLU A   4      37.078  38.468  24.893  0.00  0.00    -0.246 OA
ATOM     39  OE1 GLU A   4      37.011  39.717  23.082  0.00  0.00    -0.246 OA
ENDBRANCH  36  37
ENDBRANCH  35  36
ENDBRANCH   5  35
ENDBRANCH   2   5
BRANCH   1  40
ATOM     40  CA  HIS A   3      32.127  34.308  25.526  0.00  0.00    +0.155 C 
BRANCH  40  43
ATOM     41  C   ILE A   2      30.258  34.534  27.115  0.00  0.00    +0.241 C 
ATOM     42  O   ILE A   2      30.993  34.581  28.104  0.00  0.00    -0.273 OA
ATOM     43  N   HIS A   3      30.709  34.433  25.867  0.00  0.00    -0.297 N 
ATOM     44  H   HIS A   3      30.016  34.443  25.092  0.00  0.00    +0.150 HD
BRANCH  41  45
ATOM     45  CA  ILE A   2      28.733  34.571  27.269  0.00  0.00    +0.148 C 
BRANCH  45  47
ATOM     46  C   ARG A   1      28.276  32.201  27.613  0.00  0.00    +0.238 C 
ATOM     47  N   ILE A   2      28.294  33.442  28.091  0.00  0.00    -0.297 N 
ATOM     48  H   ILE A   2      27.989  33.614  29.070  0.00  0.00    +0.150 HD
ATOM     49  O   ARG A   1      28.590  31.924  26.452  0.00  0.00    -0.274 OA
BRANCH  46  50
ATOM     50  CA  ARG A   1      27.822  31.107  28.585  0.00  0.00    +0.145 C 
BRANCH  50  51
ATOM     51  N   ARG A   1      27.043  30.073  27.903  0.00  0.00    -0.238 NA
ATOM     52  H   ARG A   1      27.336  29.077  27.968  0.00  0.00    +0.142 HD
ENDBRANCH  50  51
BRANCH  50  53
ATOM     53  CB  ARG A   1      29.013  30.499  29.325  0.00  0.00    +0.030 C 
BRANCH  53  54
ATOM     54  CG  ARG A   1      28.617  29.677  30.555  0.00  0.00    +0.045 C 
BRANCH  54  55
ATOM     55  CD  ARG A   1      28.021  30.545  31.666  0.00  0.00    +0.174 C 
BRANCH  55  56
ATOM     56  NE  ARG A   1      29.015  31.463  32.229  0.00  0.00    -0.265 N 
ATOM     57  CZ  ARG A   1      29.694  31.243  33.352  0.00  0.00    +0.342 C 
ATOM     58  NH2 ARG A   1      29.487  30.137  34.060  0.00  0.00    -0.292 N 
ATOM     59 HH21 ARG A   1      30.022  29.973  34.937  0.00  0.00    +0.255 HD
ATOM     60 HH22 ARG A   1      28.790  29.436  33.737  0.00  0.00    +0.255 HD
ATOM     61  NH1 ARG A   1      30.580  32.138  33.775  0.00  0.00    -0.292 N 
ATOM     62 HH11 ARG A   1      31.112  31.969  34.652  0.00  0.00    +0.255 HD
ATOM     63 HH12 ARG A   1      30.742  33.008  33.229  0.00  0.00    +0.255 HD
ATOM     64  HE  ARG A   1      29.203  32.348  31.715  0.00  0.00    +0.259 HD
ENDBRANCH  55  56
ENDBRANCH  54  55
ENDBRANCH  53  54
ENDBRANCH  50  53
ENDBRANCH  46  50
ENDBRANCH  45  47
BRANCH  45  65
ATOM     65  CB  ILE A   2      28.266  35.945  27.839  0.00  0.00    +0.027 C 
ATOM     66  CG2 ILE A   2      28.604  37.085  26.865  0.00  0.00    +0.002 C 
BRANCH  65  67
ATOM     67  CG1 ILE A   2      26.767  35.940  28.199  0.00  0.00    +0.002 C 
ATOM     68  CD1 ILE A   2      25.793  35.583  27.042  0.00  0.00    +0.000 C 
ENDBRANCH  65  67
ENDBRANCH  45  65
ENDBRANCH  41  45
ENDBRANCH  40  43
BRANCH  40  69
ATOM     69  CB  HIS A   3      32.505  32.838  25.331  0.00  0.00    +0.076 C 
BRANCH  69  70
ATOM     70  CG  HIS A   3      33.011  32.162  26.564  0.00  0.00    +0.082 A 
ATOM     71  CD2 HIS A   3      32.418  31.285  27.410  0.00  0.00    +0.115 A 
ATOM     72  NE2 HIS A   3      33.344  30.960  28.372  0.00  0.00    -0.221 NA
ATOM     73  CE1 HIS A   3      34.470  31.605  28.118  0.00  0.00    +0.199 A 
ATOM     74  ND1 HIS A   3      34.298  32.332  27.027  0.00  0.00    -0.227 NA
ENDBRANCH  69  70
ENDBRANCH  40  69
ENDBRANCH   1  40
TORSDOF 31
REMARK  Name = ../refined-set-2016/3ebp/3ebp_pocket.pdb
REMARK  125 active torsions:
REMARK  status: ('A' for Active; 'I' for Inactive)
REMARK    1  A    between atoms: _2  and  _3
REMARK    2  A    between atoms: _8  and  _10
REMARK    3  A    between atoms: _10  and  _11
REMARK    4  A    between atoms: _10  and  _13
REMARK    5  A    between atoms: _13  and  _14
REMARK    6  A    between atoms: _19  and  _21
REMARK    7  A    between atoms: _21  and  _22
REMARK    8  A    between atoms: _21  and  _24
REMARK    9  A    between atoms: _24  and  _25
REMARK   10  A    between atoms: _28  and  _30
REMARK   11  A    between atoms: _30  and  _31
REMARK   12  A    between atoms: _30  and  _33
REMARK   13  A    between atoms: _33  and  _34
REMARK   14  A    between atoms: _39  and  _41
REMARK   15  A    between atoms: _41  and  _42
REMARK   16  A    between atoms: _41  and  _44
REMARK   17  A    between atoms: _44  and  _45
REMARK   18  A    between atoms: _51  and  _53
REMARK   19  A    between atoms: _53  and  _54
REMARK   20  A    between atoms: _53  and  _56
REMARK   21  A    between atoms: _56  and  _57
REMARK   22  A    between atoms: _63  and  _65
REMARK   23  A    between atoms: _65  and  _66
REMARK   24  A    between atoms: _65  and  _68
REMARK   25  A    between atoms: _68  and  _69
REMARK   26  A    between atoms: _69  and  _70
REMARK   27  A    between atoms: _73  and  _75
REMARK   28  A    between atoms: _75  and  _76
REMARK   29  A    between atoms: _75  and  _78
REMARK   30  A    between atoms: _78  and  _79
REMARK   31  A    between atoms: _82  and  _84
REMARK   32  A    between atoms: _84  and  _85
REMARK   33  A    between atoms: _84  and  _87
REMARK   34  A    between atoms: _87  and  _88
REMARK   35  A    between atoms: _92  and  _93
REMARK   36  A    between atoms: _98  and  _100
REMARK   37  A    between atoms: _100  and  _101
REMARK   38  A    between atoms: _100  and  _103
REMARK   39  A    between atoms: _103  and  _104
REMARK   40  A    between atoms: _104  and  _105
REMARK   41  A    between atoms: _108  and  _110
REMARK   42  A    between atoms: _110  and  _111
REMARK   43  A    between atoms: _114  and  _116
REMARK   44  A    between atoms: _116  and  _117
REMARK   45  A    between atoms: _116  and  _119
REMARK   46  A    between atoms: _119  and  _120
REMARK   47  A    between atoms: _123  and  _125
REMARK   48  A    between atoms: _125  and  _126
REMARK   49  A    between atoms: _125  and  _128
REMARK   50  A    between atoms: _128  and  _129
REMARK   51  A    between atoms: _129  and  _130
REMARK   52  A    between atoms: _130  and  _131
REMARK   53  A    between atoms: _140  and  _142
REMARK   54  A    between atoms: _142  and  _143
REMARK   55  A    between atoms: _142  and  _145
REMARK   56  A    between atoms: _145  and  _146
REMARK   57  A    between atoms: _149  and  _151
REMARK   58  A    between atoms: _151  and  _152
REMARK   59  A    between atoms: _151  and  _154
REMARK   60  A    between atoms: _154  and  _155
REMARK   61  A    between atoms: _160  and  _162
REMARK   62  A    between atoms: _162  and  _163
REMARK   63  A    between atoms: _162  and  _165
REMARK   64  A    between atoms: _165  and  _166
REMARK   65  A    between atoms: _166  and  _167
REMARK   66  A    between atoms: _170  and  _172
REMARK   67  A    between atoms: _172  and  _173
REMARK   68  A    between atoms: _172  and  _175
REMARK   69  A    between atoms: _175  and  _176
REMARK   70  A    between atoms: _181  and  _182
REMARK   71  A    between atoms: _184  and  _186
REMARK   72  A    between atoms: _186  and  _187
REMARK   73  A    between atoms: _186  and  _189
REMARK   74  A    between atoms: _189  and  _190
REMARK   75  A    between atoms: _190  and  _191
REMARK   76  A    between atoms: _191  and  _192
REMARK   77  A    between atoms: _192  and  _193
REMARK   78  A    between atoms: _197  and  _199
REMARK   79  A    between atoms: _199  and  _200
REMARK   80  A    between atoms: _203  and  _205
REMARK   81  A    between atoms: _205  and  _206
REMARK   82  A    between atoms: _210  and  _211
REMARK   83  A    between atoms: _216  and  _218
REMARK   84  A    between atoms: _218  and  _219
REMARK   85  A    between atoms: _221  and  _223
REMARK   86  A    between atoms: _223  and  _224
REMARK   87  A    between atoms: _223  and  _226
REMARK   88  A    between atoms: _226  and  _227
REMARK   89  A    between atoms: _232  and  _233
REMARK   90  A    between atoms: _235  and  _237
REMARK   91  A    between atoms: _237  and  _238
REMARK   92  A    between atoms: _237  and  _240
REMARK   93  A    between atoms: _240  and  _241
REMARK   94  A    between atoms: _246  and  _248
REMARK   95  A    between atoms: _248  and  _249
REMARK   96  A    between atoms: _248  and  _251
REMARK   97  A    between atoms: _251  and  _252
REMARK   98  A    between atoms: _252  and  _253
REMARK   99  A    between atoms: _255  and  _257
REMARK  100  A    between atoms: _257  and  _258
REMARK  101  A    between atoms: _261  and  _263
REMARK  102  A    between atoms: _263  and  _264
REMARK  103  A    between atoms: _263  and  _266
REMARK  104  A    between atoms: _266  and  _267
REMARK  105  A    between atoms: _267  and  _268
REMARK  106  A    between atoms: _268  and  _269
REMARK  107  A    between atoms: _269  and  _270
REMARK  108  A    between atoms: _274  and  _276
REMARK  109  A    between atoms: _276  and  _277
REMARK  110  A    between atoms: _276  and  _279
REMARK  111  A    between atoms: _279  and  _280
REMARK  112  A    between atoms: _283  and  _285
REMARK  113  A    between atoms: _285  and  _286
REMARK  114  A    between atoms: _285  and  _288
REMARK  115  A    between atoms: _288  and  _289
REMARK  116  A    between atoms: _294  and  _296
REMARK  117  A    between atoms: _296  and  _297
REMARK  118  A    between atoms: _296  and  _299
REMARK  119  A    between atoms: _299  and  _300
REMARK  120  A    between atoms: _300  and  _301
REMARK  121  A    between atoms: _301  and  _302
REMARK  122  A    between atoms: _311  and  _313
REMARK  123  A    between atoms: _313  and  _314
REMARK  124  A    between atoms: _313  and  _316
REMARK  125  A    between atoms: _316  and  _317
REMARK                            x       y       z     vdW  Elec       q    Type
REMARK                         _______ _______ _______ _____ _____    ______ ____
ROOT
ATOM      1  C   TYR A   5      34.330  40.447  31.638  0.00  0.00    +0.241 C 
ATOM      2  N   HIS A   6      35.090  41.538  31.553  0.00  0.00    -0.297 N 
ATOM      3  H   HIS A   6      36.099  41.469  31.797  0.00  0.00    +0.150 HD
ATOM      4  O   TYR A   5      33.147  40.411  31.271  0.00  0.00    -0.273 OA
ENDROOT
BRANCH   2   5
ATOM      5  CA  HIS A   6      34.550  42.832  31.126  0.00  0.00    +0.155 C 
BRANCH   5   6
ATOM      6  C   HIS A   6      33.857  42.793  29.760  0.00  0.00    +0.241 C 
ATOM      7  O   HIS A   6      32.734  43.276  29.626  0.00  0.00    -0.273 OA
ATOM      8  N   MET A   7      34.520  42.216  28.759  0.00  0.00    -0.297 N 
ATOM      9  H   MET A   7      35.448  41.784  28.944  0.00  0.00    +0.150 HD
BRANCH   8  10
ATOM     10  CA  MET A   7      33.968  42.177  27.400  0.00  0.00    +0.149 C 
BRANCH  10  11
ATOM     11  C   MET A   7      32.633  41.429  27.334  0.00  0.00    +0.241 C 
ATOM     12  N   ALA A   8      32.542  40.300  28.033  0.00  0.00    -0.297 N 
ATOM     13  H   ALA A   8      33.377  39.963  28.553  0.00  0.00    +0.150 HD
ATOM     14  O   MET A   7      31.706  41.879  26.663  0.00  0.00    -0.273 OA
BRANCH  12  15
ATOM     15  CA  ALA A   8      31.303  39.514  28.096  0.00  0.00    +0.149 C 
ATOM     16  CB  ALA A   8      31.538  38.202  28.828  0.00  0.00    +0.031 C 
BRANCH  15  17
ATOM     17  C   ALA A   8      30.164  40.296  28.752  0.00  0.00    +0.241 C 
ATOM     18  N   LYS A   9      30.499  41.101  29.758  0.00  0.00    -0.298 N 
ATOM     19  H   LYS A   9      31.481  41.111  30.101  0.00  0.00    +0.150 HD
ATOM     20  O   ALA A   8      29.003  40.175  28.351  0.00  0.00    -0.273 OA
BRANCH  18  21
ATOM     21  CA  LYS A   9      29.511  41.969  30.386  0.00  0.00    +0.137 C 
BRANCH  21  22
ATOM     22  C   LYS A   9      29.057  43.075  29.436  0.00  0.00    +0.227 C 
ATOM     23  O   LYS A   9      27.885  43.458  29.442  0.00  0.00    -0.286 OA
ENDBRANCH  21  22
BRANCH  21  24
ATOM     24  CB  LYS A   9      30.031  42.526  31.713  0.00  0.00    +0.028 C 
BRANCH  24  25
ATOM     25  CG  LYS A   9      29.991  41.494  32.826  0.00  0.00    -0.000 C 
BRANCH  25  26
ATOM     26  CD  LYS A   9      30.290  42.106  34.180  0.00  0.00    -0.024 C 
BRANCH  26  27
ATOM     27  CE  LYS A   9      29.751  41.217  35.274  0.00  0.00    -0.086 C 
BRANCH  27  28
ATOM     28  NZ  LYS A   9      29.999  41.765  36.634  0.00  0.00    +0.380 N 
ATOM     29  HZ1 LYS A   9      29.608  41.114  37.345  0.00  0.00    -0.089 HD
ATOM     30  HZ2 LYS A   9      31.023  41.869  36.783  0.00  0.00    -0.089 HD
ATOM     31  HZ3 LYS A   9      29.539  42.693  36.722  0.00  0.00    -0.089 HD
ENDBRANCH  27  28
ENDBRANCH  26  27
ENDBRANCH  25  26
ENDBRANCH  24  25
ENDBRANCH  21  24
ENDBRANCH  18  21
ENDBRANCH  15  17
ENDBRANCH  12  15
ENDBRANCH  10  11
BRANCH  10  32
ATOM     32  CB  MET A   7      34.977  41.586  26.403  0.00  0.00    +0.041 C 
BRANCH  32  33
ATOM     33  CG  MET A   7      34.606  41.787  24.929  0.00  0.00    +0.060 C 
BRANCH  33  34
ATOM     34  SD  MET A   7      34.424  43.516  24.413  0.00  0.00    -0.139 S 
ATOM     35  CE  MET A   7      36.091  44.141  24.636  0.00  0.00    +0.069 C 
ENDBRANCH  33  34
ENDBRANCH  32  33
ENDBRANCH  10  32
ENDBRANCH   8  10
ENDBRANCH   5   6
BRANCH   5  36
ATOM     36  CB  HIS A   6      35.636  43.919  31.137  0.00  0.00    +0.076 C 
BRANCH  36  37
ATOM     37  CG  HIS A   6      35.146  45.255  30.669  0.00  0.00    +0.082 A 
ATOM     38  CD2 HIS A   6      34.313  46.151  31.249  0.00  0.00    +0.115 A 
ATOM     39  NE2 HIS A   6      34.181  47.205  30.378  0.00  0.00    -0.221 NA
ATOM     40  CE1 HIS A   6      34.903  46.962  29.298  0.00  0.00    +0.199 A 
ATOM     41  ND1 HIS A   6      35.495  45.790  29.448  0.00  0.00    -0.227 NA
ENDBRANCH  36  37
ENDBRANCH   5  36
ENDBRANCH   2   5
BRANCH   1  42
ATOM     42  CA  TYR A   5      34.998  39.217  32.238  0.00  0.00    +0.153 C 
BRANCH  42  45
ATOM     43  C   GLY A   4      35.636  39.837  34.523  0.00  0.00    +0.243 C 
ATOM     44  O   GLY A   4      36.631  40.460  34.145  0.00  0.00    -0.273 OA
ATOM     45  N   TYR A   5      34.788  39.242  33.684  0.00  0.00    -0.297 N 
ATOM     46  H   TYR A   5      33.943  38.777  34.074  0.00  0.00    +0.150 HD
BRANCH  43  47
ATOM     47  CA  GLY A   4      35.327  39.718  36.004  0.00  0.00    +0.176 C 
BRANCH  47  50
ATOM     48  C   PRO A   3      32.967  39.436  36.550  0.00  0.00    +0.241 C 
ATOM     49  O   PRO A   3      32.744  40.642  36.430  0.00  0.00    -0.273 OA
ATOM     50  N   GLY A   4      34.167  38.895  36.348  0.00  0.00    -0.295 N 
ATOM     51  H   GLY A   4      34.282  37.865  36.437  0.00  0.00    +0.150 HD
BRANCH  48  57
ATOM     52  C   ALA A   2      32.040  36.954  35.018  0.00  0.00    +0.244 C 
ATOM     53  N   PRO A   3      31.905  37.146  36.348  0.00  0.00    -0.272 N 
ATOM     54  CD  PRO A   3      31.806  36.096  37.379  0.00  0.00    +0.094 C 
ATOM     55  CG  PRO A   3      31.291  36.843  38.584  0.00  0.00    +0.024 C 
ATOM     56  CB  PRO A   3      31.838  38.215  38.451  0.00  0.00    +0.031 C 
ATOM     57  CA  PRO A   3      31.822  38.490  36.939  0.00  0.00    +0.152 C 
ATOM     58  O   ALA A   2      32.176  37.885  34.217  0.00  0.00    -0.273 OA
BRANCH  52  59
ATOM     59  CA  ALA A   2      31.972  35.516  34.496  0.00  0.00    +0.149 C 
ATOM     60  CB  ALA A   2      33.356  34.995  34.150  0.00  0.00    +0.031 C 
BRANCH  59  63
ATOM     61  C   ALA A   1      29.878  36.006  33.368  0.00  0.00    +0.238 C 
ATOM     62  O   ALA A   1      29.322  36.287  34.429  0.00  0.00    -0.274 OA
ATOM     63  N   ALA A   2      31.119  35.532  33.313  0.00  0.00    -0.297 N 
ATOM     64  H   ALA A   2      31.488  35.167  32.412  0.00  0.00    +0.150 HD
BRANCH  61  65
ATOM     65  CA  ALA A   1      29.152  36.193  32.043  0.00  0.00    +0.145 C 
ATOM     66  CB  ALA A   1      29.215  37.651  31.616  0.00  0.00    +0.028 C 
BRANCH  65  67
ATOM     67  N   ALA A   1      27.763  35.774  32.185  0.00  0.00    -0.238 NA
ATOM     68  H   ALA A   1      27.092  36.426  32.640  0.00  0.00    +0.142 HD
ENDBRANCH  65  67
ENDBRANCH  61  65
ENDBRANCH  59  63
ENDBRANCH  52  59
ENDBRANCH  48  57
ENDBRANCH  47  50
ENDBRANCH  43  47
ENDBRANCH  42  45
BRANCH  42  69
ATOM     69  CB  TYR A   5      34.401  37.931  31.648  0.00  0.00    +0.055 C 
BRANCH  69  70
ATOM     70  CG  TYR A   5      34.782  37.598  30.214  0.00  0.00    -0.020 A 
ATOM     71  CD2 TYR A   5      34.380  36.386  29.645  0.00  0.00    -0.001 A 
ATOM     72  CE2 TYR A   5      34.707  36.056  28.336  0.00  0.00    +0.036 A 
ATOM     73  CZ  TYR A   5      35.463  36.937  27.576  0.00  0.00    +0.134 A 
ATOM     74  CE1 TYR A   5      35.889  38.151  28.114  0.00  0.00    +0.036 A 
ATOM     75  CD1 TYR A   5      35.546  38.472  29.431  0.00  0.00    -0.001 A 
BRANCH  73  76
ATOM     76  OH  TYR A   5      35.786  36.597  26.284  0.00  0.00    -0.506 OA
ATOM     77  HH  TYR A   5      35.404  35.709  26.072  0.00  0.00    +0.292 HD
ENDBRANCH  73  76
ENDBRANCH  69  70
ENDBRANCH  42  69
ENDBRANCH   1  42
TORSDOF 30
REMARK  Name = ../refined-set-2016/3ebp/3ebp_pocket.pdb
REMARK  125 active torsions:
REMARK  status: ('A' for Active; 'I' for Inactive)
REMARK    1  A    between atoms: _2  and  _3
REMARK    2  A    between atoms: _8  and  _10
REMARK    3  A    between atoms: _10  and  _11
REMARK    4  A    between atoms: _10  and  _13
REMARK    5  A    between atoms: _13  and  _14
REMARK    6  A    between atoms: _19  and  _21
REMARK    7  A    between atoms: _21  and  _22
REMARK    8  A    between atoms: _21  and  _24
REMARK    9  A    between atoms: _24  and  _25
REMARK   10  A    between atoms: _28  and  _30
REMARK   11  A    between atoms: _30  and  _31
REMARK   12  A    between atoms: _30  and  _33
REMARK   13  A    between atoms: _33  and  _34
REMARK   14  A    between atoms: _39  and  _41
REMARK   15  A    between atoms: _41  and  _42
REMARK   16  A    between atoms: _41  and  _44
REMARK   17  A    between atoms: _44  and  _45
REMARK   18  A    between atoms: _51  and  _53
REMARK   19  A    between atoms: _53  and  _54
REMARK   20  A    between atoms: _53  and  _56
REMARK   21  A    between atoms: _56  and  _57
REMARK   22  A    between atoms: _63  and  _65
REMARK   23  A    between atoms: _65  and  _66
REMARK   24  A    between atoms: _65  and  _68
REMARK   25  A    between atoms: _68  and  _69
REMARK   26  A    between atoms: _69  and  _70
REMARK   27  A    between atoms: _73  and  _75
REMARK   28  A    between atoms: _75  and  _76
REMARK   29  A    between atoms: _75  and  _78
REMARK   30  A    between atoms: _78  and  _79
REMARK   31  A    between atoms: _82  and  _84
REMARK   32  A    between atoms: _84  and  _85
REMARK   33  A    between atoms: _84  and  _87
REMARK   34  A    between atoms: _87  and  _88
REMARK   35  A    between atoms: _92  and  _93
REMARK   36  A    between atoms: _98  and  _100
REMARK   37  A    between atoms: _100  and  _101
REMARK   38  A    between atoms: _100  and  _103
REMARK   39  A    between atoms: _103  and  _104
REMARK   40  A    between atoms: _104  and  _105
REMARK   41  A    between atoms: _108  and  _110
REMARK   42  A    between atoms: _110  and  _111
REMARK   43  A    between atoms: _114  and  _116
REMARK   44  A    between atoms: _116  and  _117
REMARK   45  A    between atoms: _116  and  _119
REMARK   46  A    between atoms: _119  and  _120
REMARK   47  A    between atoms: _123  and  _125
REMARK   48  A    between atoms: _125  and  _126
REMARK   49  A    between atoms: _125  and  _128
REMARK   50  A    between atoms: _128  and  _129
REMARK   51  A    between atoms: _129  and  _130
REMARK   52  A    between atoms: _130  and  _131
REMARK   53  A    between atoms: _140  and  _142
REMARK   54  A    between atoms: _142  and  _143
REMARK   55  A    between atoms: _142  and  _145
REMARK   56  A    between atoms: _145  and  _146
REMARK   57  A    between atoms: _149  and  _151
REMARK   58  A    between atoms: _151  and  _152
REMARK   59  A    between atoms: _151  and  _154
REMARK   60  A    between atoms: _154  and  _155
REMARK   61  A    between atoms: _160  and  _162
REMARK   62  A    between atoms: _162  and  _163
REMARK   63  A    between atoms: _162  and  _165
REMARK   64  A    between atoms: _165  and  _166
REMARK   65  A    between atoms: _166  and  _167
REMARK   66  A    between atoms: _170  and  _172
REMARK   67  A    between atoms: _172  and  _173
REMARK   68  A    between atoms: _172  and  _175
REMARK   69  A    between atoms: _175  and  _176
REMARK   70  A    between atoms: _181  and  _182
REMARK   71  A    between atoms: _184  and  _186
REMARK   72  A    between atoms: _186  and  _187
REMARK   73  A    between atoms: _186  and  _189
REMARK   74  A    between atoms: _189  and  _190
REMARK   75  A    between atoms: _190  and  _191
REMARK   76  A    between atoms: _191  and  _192
REMARK   77  A    between atoms: _192  and  _193
REMARK   78  A    between atoms: _197  and  _199
REMARK   79  A    between atoms: _199  and  _200
REMARK   80  A    between atoms: _203  and  _205
REMARK   81  A    between atoms: _205  and  _206
REMARK   82  A    between atoms: _210  and  _211
REMARK   83  A    between atoms: _216  and  _218
REMARK   84  A    between atoms: _218  and  _219
REMARK   85  A    between atoms: _221  and  _223
REMARK   86  A    between atoms: _223  and  _224
REMARK   87  A    between atoms: _223  and  _226
REMARK   88  A    between atoms: _226  and  _227
REMARK   89  A    between atoms: _232  and  _233
REMARK   90  A    between atoms: _235  and  _237
REMARK   91  A    between atoms: _237  and  _238
REMARK   92  A    between atoms: _237  and  _240
REMARK   93  A    between atoms: _240  and  _241
REMARK   94  A    between atoms: _246  and  _248
REMARK   95  A    between atoms: _248  and  _249
REMARK   96  A    between atoms: _248  and  _251
REMARK   97  A    between atoms: _251  and  _252
REMARK   98  A    between atoms: _252  and  _253
REMARK   99  A    between atoms: _255  and  _257
REMARK  100  A    between atoms: _257  and  _258
REMARK  101  A    between atoms: _261  and  _263
REMARK  102  A    between atoms: _263  and  _264
REMARK  103  A    between atoms: _263  and  _266
REMARK  104  A    between atoms: _266  and  _267
REMARK  105  A    between atoms: _267  and  _268
REMARK  106  A    between atoms: _268  and  _269
REMARK  107  A    between atoms: _269  and  _270
REMARK  108  A    between atoms: _274  and  _276
REMARK  109  A    between atoms: _276  and  _277
REMARK  110  A    between atoms: _276  and  _279
REMARK  111  A    between atoms: _279  and  _280
REMARK  112  A    between atoms: _283  and  _285
REMARK  113  A    between atoms: _285  and  _286
REMARK  114  A    between atoms: _285  and  _288
REMARK  115  A    between atoms: _288  and  _289
REMARK  116  A    between atoms: _294  and  _296
REMARK  117  A    between atoms: _296  and  _297
REMARK  118  A    between atoms: _296  and  _299
REMARK  119  A    between atoms: _299  and  _300
REMARK  120  A    between atoms: _300  and  _301
REMARK  121  A    between atoms: _301  and  _302
REMARK  122  A    between atoms: _311  and  _313
REMARK  123  A    between atoms: _313  and  _314
REMARK  124  A    between atoms: _313  and  _316
REMARK  125  A    between atoms: _316  and  _317
REMARK                            x       y       z     vdW  Elec       q    Type
REMARK                         _______ _______ _______ _____ _____    ______ ____
ROOT
ATOM      1  CA  THR A   1      37.522  26.869  19.435  0.00  0.00    +0.160 C 
ENDROOT
BRANCH   1   2
ATOM      2  N   THR A   1      37.551  26.304  18.073  0.00  0.00    -0.237 NA
ATOM      3  H   THR A   1      36.717  26.405  17.459  0.00  0.00    +0.142 HD
ENDBRANCH   1   2
BRANCH   1   4
ATOM      4  C   THR A   1      36.586  26.148  20.409  0.00  0.00    +0.227 C 
ATOM      5  O   THR A   1      36.912  26.020  21.590  0.00  0.00    -0.287 OA
ENDBRANCH   1   4
BRANCH   1   6
ATOM      6  CB  THR A   1      37.188  28.380  19.441  0.00  0.00    +0.134 C 
ATOM      7  CG2 THR A   1      38.183  29.172  18.586  0.00  0.00    +0.034 C 
BRANCH   6   8
ATOM      8  OG1 THR A   1      35.862  28.588  18.943  0.00  0.00    -0.383 OA
ATOM      9  HG1 THR A   1      35.801  28.243  18.017  0.00  0.00    +0.210 HD
ENDBRANCH   6   8
ENDBRANCH   1   6
TORSDOF 4
REMARK  Name = ../refined-set-2016/3ebp/3ebp_pocket.pdb
REMARK  125 active torsions:
REMARK  status: ('A' for Active; 'I' for Inactive)
REMARK    1  A    between atoms: _2  and  _3
REMARK    2  A    between atoms: _8  and  _10
REMARK    3  A    between atoms: _10  and  _11
REMARK    4  A    between atoms: _10  and  _13
REMARK    5  A    between atoms: _13  and  _14
REMARK    6  A    between atoms: _19  and  _21
REMARK    7  A    between atoms: _21  and  _22
REMARK    8  A    between atoms: _21  and  _24
REMARK    9  A    between atoms: _24  and  _25
REMARK   10  A    between atoms: _28  and  _30
REMARK   11  A    between atoms: _30  and  _31
REMARK   12  A    between atoms: _30  and  _33
REMARK   13  A    between atoms: _33  and  _34
REMARK   14  A    between atoms: _39  and  _41
REMARK   15  A    between atoms: _41  and  _42
REMARK   16  A    between atoms: _41  and  _44
REMARK   17  A    between atoms: _44  and  _45
REMARK   18  A    between atoms: _51  and  _53
REMARK   19  A    between atoms: _53  and  _54
REMARK   20  A    between atoms: _53  and  _56
REMARK   21  A    between atoms: _56  and  _57
REMARK   22  A    between atoms: _63  and  _65
REMARK   23  A    between atoms: _65  and  _66
REMARK   24  A    between atoms: _65  and  _68
REMARK   25  A    between atoms: _68  and  _69
REMARK   26  A    between atoms: _69  and  _70
REMARK   27  A    between atoms: _73  and  _75
REMARK   28  A    between atoms: _75  and  _76
REMARK   29  A    between atoms: _75  and  _78
REMARK   30  A    between atoms: _78  and  _79
REMARK   31  A    between atoms: _82  and  _84
REMARK   32  A    between atoms: _84  and  _85
REMARK   33  A    between atoms: _84  and  _87
REMARK   34  A    between atoms: _87  and  _88
REMARK   35  A    between atoms: _92  and  _93
REMARK   36  A    between atoms: _98  and  _100
REMARK   37  A    between atoms: _100  and  _101
REMARK   38  A    between atoms: _100  and  _103
REMARK   39  A    between atoms: _103  and  _104
REMARK   40  A    between atoms: _104  and  _105
REMARK   41  A    between atoms: _108  and  _110
REMARK   42  A    between atoms: _110  and  _111
REMARK   43  A    between atoms: _114  and  _116
REMARK   44  A    between atoms: _116  and  _117
REMARK   45  A    between atoms: _116  and  _119
REMARK   46  A    between atoms: _119  and  _120
REMARK   47  A    between atoms: _123  and  _125
REMARK   48  A    between atoms: _125  and  _126
REMARK   49  A    between atoms: _125  and  _128
REMARK   50  A    between atoms: _128  and  _129
REMARK   51  A    between atoms: _129  and  _130
REMARK   52  A    between atoms: _130  and  _131
REMARK   53  A    between atoms: _140  and  _142
REMARK   54  A    between atoms: _142  and  _143
REMARK   55  A    between atoms: _142  and  _145
REMARK   56  A    between atoms: _145  and  _146
REMARK   57  A    between atoms: _149  and  _151
REMARK   58  A    between atoms: _151  and  _152
REMARK   59  A    between atoms: _151  and  _154
REMARK   60  A    between atoms: _154  and  _155
REMARK   61  A    between atoms: _160  and  _162
REMARK   62  A    between atoms: _162  and  _163
REMARK   63  A    between atoms: _162  and  _165
REMARK   64  A    between atoms: _165  and  _166
REMARK   65  A    between atoms: _166  and  _167
REMARK   66  A    between atoms: _170  and  _172
REMARK   67  A    between atoms: _172  and  _173
REMARK   68  A    between atoms: _172  and  _175
REMARK   69  A    between atoms: _175  and  _176
REMARK   70  A    between atoms: _181  and  _182
REMARK   71  A    between atoms: _184  and  _186
REMARK   72  A    between atoms: _186  and  _187
REMARK   73  A    between atoms: _186  and  _189
REMARK   74  A    between atoms: _189  and  _190
REMARK   75  A    between atoms: _190  and  _191
REMARK   76  A    between atoms: _191  and  _192
REMARK   77  A    between atoms: _192  and  _193
REMARK   78  A    between atoms: _197  and  _199
REMARK   79  A    between atoms: _199  and  _200
REMARK   80  A    between atoms: _203  and  _205
REMARK   81  A    between atoms: _205  and  _206
REMARK   82  A    between atoms: _210  and  _211
REMARK   83  A    between atoms: _216  and  _218
REMARK   84  A    between atoms: _218  and  _219
REMARK   85  A    between atoms: _221  and  _223
REMARK   86  A    between atoms: _223  and  _224
REMARK   87  A    between atoms: _223  and  _226
REMARK   88  A    between atoms: _226  and  _227
REMARK   89  A    between atoms: _232  and  _233
REMARK   90  A    between atoms: _235  and  _237
REMARK   91  A    between atoms: _237  and  _238
REMARK   92  A    between atoms: _237  and  _240
REMARK   93  A    between atoms: _240  and  _241
REMARK   94  A    between atoms: _246  and  _248
REMARK   95  A    between atoms: _248  and  _249
REMARK   96  A    between atoms: _248  and  _251
REMARK   97  A    between atoms: _251  and  _252
REMARK   98  A    between atoms: _252  and  _253
REMARK   99  A    between atoms: _255  and  _257
REMARK  100  A    between atoms: _257  and  _258
REMARK  101  A    between atoms: _261  and  _263
REMARK  102  A    between atoms: _263  and  _264
REMARK  103  A    between atoms: _263  and  _266
REMARK  104  A    between atoms: _266  and  _267
REMARK  105  A    between atoms: _267  and  _268
REMARK  106  A    between atoms: _268  and  _269
REMARK  107  A    between atoms: _269  and  _270
REMARK  108  A    between atoms: _274  and  _276
REMARK  109  A    between atoms: _276  and  _277
REMARK  110  A    between atoms: _276  and  _279
REMARK  111  A    between atoms: _279  and  _280
REMARK  112  A    between atoms: _283  and  _285
REMARK  113  A    between atoms: _285  and  _286
REMARK  114  A    between atoms: _285  and  _288
REMARK  115  A    between atoms: _288  and  _289
REMARK  116  A    between atoms: _294  and  _296
REMARK  117  A    between atoms: _296  and  _297
REMARK  118  A    between atoms: _296  and  _299
REMARK  119  A    between atoms: _299  and  _300
REMARK  120  A    between atoms: _300  and  _301
REMARK  121  A    between atoms: _301  and  _302
REMARK  122  A    between atoms: _311  and  _313
REMARK  123  A    between atoms: _313  and  _314
REMARK  124  A    between atoms: _313  and  _316
REMARK  125  A    between atoms: _316  and  _317
REMARK                            x       y       z     vdW  Elec       q    Type
REMARK                         _______ _______ _______ _____ _____    ______ ____
ROOT
ATOM      1  CB  HIS A   1      42.737  43.339  19.544  0.00  0.00    +0.072 C 
ENDROOT
BRANCH   1   2
ATOM      2  CG  HIS A   1      41.830  44.039  20.507  0.00  0.00    +0.082 A 
ATOM      3  ND1 HIS A   1      41.145  43.373  21.501  0.00  0.00    -0.227 NA
ATOM      4  CE1 HIS A   1      40.451  44.243  22.213  0.00  0.00    +0.199 A 
ATOM      5  NE2 HIS A   1      40.668  45.450  21.723  0.00  0.00    -0.221 NA
ATOM      6  CD2 HIS A   1      41.534  45.351  20.661  0.00  0.00    +0.115 A 
ENDBRANCH   1   2
BRANCH   1   7
ATOM      7  CA  HIS A   1      42.078  42.945  18.201  0.00  0.00    +0.139 C 
BRANCH   7   8
ATOM      8  N   HIS A   1      41.549  44.107  17.469  0.00  0.00    -0.239 NA
ATOM      9  H   HIS A   1      40.598  44.469  17.685  0.00  0.00    +0.142 HD
ENDBRANCH   7   8
BRANCH   7  10
ATOM     10  C   HIS A   1      41.078  41.796  18.387  0.00  0.00    +0.224 C 
ATOM     11  O   HIS A   1      40.899  41.279  19.496  0.00  0.00    -0.287 OA
ENDBRANCH   7  10
ENDBRANCH   1   7
TORSDOF 4
REMARK  Name = ../refined-set-2016/3ebp/3ebp_pocket.pdb
REMARK  125 active torsions:
REMARK  status: ('A' for Active; 'I' for Inactive)
REMARK    1  A    between atoms: _2  and  _3
REMARK    2  A    between atoms: _8  and  _10
REMARK    3  A    between atoms: _10  and  _11
REMARK    4  A    between atoms: _10  and  _13
REMARK    5  A    between atoms: _13  and  _14
REMARK    6  A    between atoms: _19  and  _21
REMARK    7  A    between atoms: _21  and  _22
REMARK    8  A    between atoms: _21  and  _24
REMARK    9  A    between atoms: _24  and  _25
REMARK   10  A    between atoms: _28  and  _30
REMARK   11  A    between atoms: _30  and  _31
REMARK   12  A    between atoms: _30  and  _33
REMARK   13  A    between atoms: _33  and  _34
REMARK   14  A    between atoms: _39  and  _41
REMARK   15  A    between atoms: _41  and  _42
REMARK   16  A    between atoms: _41  and  _44
REMARK   17  A    between atoms: _44  and  _45
REMARK   18  A    between atoms: _51  and  _53
REMARK   19  A    between atoms: _53  and  _54
REMARK   20  A    between atoms: _53  and  _56
REMARK   21  A    between atoms: _56  and  _57
REMARK   22  A    between atoms: _63  and  _65
REMARK   23  A    between atoms: _65  and  _66
REMARK   24  A    between atoms: _65  and  _68
REMARK   25  A    between atoms: _68  and  _69
REMARK   26  A    between atoms: _69  and  _70
REMARK   27  A    between atoms: _73  and  _75
REMARK   28  A    between atoms: _75  and  _76
REMARK   29  A    between atoms: _75  and  _78
REMARK   30  A    between atoms: _78  and  _79
REMARK   31  A    between atoms: _82  and  _84
REMARK   32  A    between atoms: _84  and  _85
REMARK   33  A    between atoms: _84  and  _87
REMARK   34  A    between atoms: _87  and  _88
REMARK   35  A    between atoms: _92  and  _93
REMARK   36  A    between atoms: _98  and  _100
REMARK   37  A    between atoms: _100  and  _101
REMARK   38  A    between atoms: _100  and  _103
REMARK   39  A    between atoms: _103  and  _104
REMARK   40  A    between atoms: _104  and  _105
REMARK   41  A    between atoms: _108  and  _110
REMARK   42  A    between atoms: _110  and  _111
REMARK   43  A    between atoms: _114  and  _116
REMARK   44  A    between atoms: _116  and  _117
REMARK   45  A    between atoms: _116  and  _119
REMARK   46  A    between atoms: _119  and  _120
REMARK   47  A    between atoms: _123  and  _125
REMARK   48  A    between atoms: _125  and  _126
REMARK   49  A    between atoms: _125  and  _128
REMARK   50  A    between atoms: _128  and  _129
REMARK   51  A    between atoms: _129  and  _130
REMARK   52  A    between atoms: _130  and  _131
REMARK   53  A    between atoms: _140  and  _142
REMARK   54  A    between atoms: _142  and  _143
REMARK   55  A    between atoms: _142  and  _145
REMARK   56  A    between atoms: _145  and  _146
REMARK   57  A    between atoms: _149  and  _151
REMARK   58  A    between atoms: _151  and  _152
REMARK   59  A    between atoms: _151  and  _154
REMARK   60  A    between atoms: _154  and  _155
REMARK   61  A    between atoms: _160  and  _162
REMARK   62  A    between atoms: _162  and  _163
REMARK   63  A    between atoms: _162  and  _165
REMARK   64  A    between atoms: _165  and  _166
REMARK   65  A    between atoms: _166  and  _167
REMARK   66  A    between atoms: _170  and  _172
REMARK   67  A    between atoms: _172  and  _173
REMARK   68  A    between atoms: _172  and  _175
REMARK   69  A    between atoms: _175  and  _176
REMARK   70  A    between atoms: _181  and  _182
REMARK   71  A    between atoms: _184  and  _186
REMARK   72  A    between atoms: _186  and  _187
REMARK   73  A    between atoms: _186  and  _189
REMARK   74  A    between atoms: _189  and  _190
REMARK   75  A    between atoms: _190  and  _191
REMARK   76  A    between atoms: _191  and  _192
REMARK   77  A    between atoms: _192  and  _193
REMARK   78  A    between atoms: _197  and  _199
REMARK   79  A    between atoms: _199  and  _200
REMARK   80  A    between atoms: _203  and  _205
REMARK   81  A    between atoms: _205  and  _206
REMARK   82  A    between atoms: _210  and  _211
REMARK   83  A    between atoms: _216  and  _218
REMARK   84  A    between atoms: _218  and  _219
REMARK   85  A    between atoms: _221  and  _223
REMARK   86  A    between atoms: _223  and  _224
REMARK   87  A    between atoms: _223  and  _226
REMARK   88  A    between atoms: _226  and  _227
REMARK   89  A    between atoms: _232  and  _233
REMARK   90  A    between atoms: _235  and  _237
REMARK   91  A    between atoms: _237  and  _238
REMARK   92  A    between atoms: _237  and  _240
REMARK   93  A    between atoms: _240  and  _241
REMARK   94  A    between atoms: _246  and  _248
REMARK   95  A    between atoms: _248  and  _249
REMARK   96  A    between atoms: _248  and  _251
REMARK   97  A    between atoms: _251  and  _252
REMARK   98  A    between atoms: _252  and  _253
REMARK   99  A    between atoms: _255  and  _257
REMARK  100  A    between atoms: _257  and  _258
REMARK  101  A    between atoms: _261  and  _263
REMARK  102  A    between atoms: _263  and  _264
REMARK  103  A    between atoms: _263  and  _266
REMARK  104  A    between atoms: _266  and  _267
REMARK  105  A    between atoms: _267  and  _268
REMARK  106  A    between atoms: _268  and  _269
REMARK  107  A    between atoms: _269  and  _270
REMARK  108  A    between atoms: _274  and  _276
REMARK  109  A    between atoms: _276  and  _277
REMARK  110  A    between atoms: _276  and  _279
REMARK  111  A    between atoms: _279  and  _280
REMARK  112  A    between atoms: _283  and  _285
REMARK  113  A    between atoms: _285  and  _286
REMARK  114  A    between atoms: _285  and  _288
REMARK  115  A    between atoms: _288  and  _289
REMARK  116  A    between atoms: _294  and  _296
REMARK  117  A    between atoms: _296  and  _297
REMARK  118  A    between atoms: _296  and  _299
REMARK  119  A    between atoms: _299  and  _300
REMARK  120  A    between atoms: _300  and  _301
REMARK  121  A    between atoms: _301  and  _302
REMARK  122  A    between atoms: _311  and  _313
REMARK  123  A    between atoms: _313  and  _314
REMARK  124  A    between atoms: _313  and  _316
REMARK  125  A    between atoms: _316  and  _317
REMARK                            x       y       z     vdW  Elec       q    Type
REMARK                         _______ _______ _______ _____ _____    ______ ____
ROOT
ATOM      1  CA  ARG A   1      41.032  36.877  17.887  0.00  0.00    +0.145 C 
ENDROOT
BRANCH   1   2
ATOM      2  C   ARG A   1      40.073  35.859  17.264  0.00  0.00    +0.238 C 
ATOM      3  N   PHE A   2      38.786  36.191  17.224  0.00  0.00    -0.298 N 
ATOM      4  H   PHE A   2      38.495  37.152  17.496  0.00  0.00    +0.150 HD
ATOM      5  O   ARG A   1      40.499  34.794  16.815  0.00  0.00    -0.274 OA
BRANCH   3   6
ATOM      6  CA  PHE A   2      37.771  35.220  16.801  0.00  0.00    +0.141 C 
BRANCH   6   7
ATOM      7  C   PHE A   2      37.068  35.529  15.469  0.00  0.00    +0.227 C 
ATOM      8  O   PHE A   2      36.087  34.873  15.098  0.00  0.00    -0.286 OA
ENDBRANCH   6   7
BRANCH   6   9
ATOM      9  CB  PHE A   2      36.808  34.946  17.963  0.00  0.00    +0.054 C 
BRANCH   9  10
ATOM     10  CG  PHE A   2      37.520  34.489  19.202  0.00  0.00    -0.020 A 
ATOM     11  CD2 PHE A   2      37.686  35.347  20.281  0.00  0.00    -0.004 A 
ATOM     12  CE2 PHE A   2      38.375  34.932  21.418  0.00  0.00    -0.000 A 
ATOM     13  CZ  PHE A   2      38.930  33.654  21.470  0.00  0.00    -0.000 A 
ATOM     14  CE1 PHE A   2      38.786  32.795  20.389  0.00  0.00    -0.000 A 
ATOM     15  CD1 PHE A   2      38.088  33.219  19.259  0.00  0.00    -0.004 A 
ENDBRANCH   9  10
ENDBRANCH   6   9
ENDBRANCH   3   6
ENDBRANCH   1   2
BRANCH   1  16
ATOM     16  N   ARG A   1      40.425  38.197  18.032  0.00  0.00    -0.238 NA
ATOM     17  H   ARG A   1      40.227  38.552  18.989  0.00  0.00    +0.142 HD
ENDBRANCH   1  16
BRANCH   1  18
ATOM     18  CB  ARG A   1      41.492  36.355  19.251  0.00  0.00    +0.030 C 
BRANCH  18  19
ATOM     19  CG  ARG A   1      42.519  37.231  19.965  0.00  0.00    +0.045 C 
BRANCH  19  20
ATOM     20  CD  ARG A   1      42.669  36.813  21.430  0.00  0.00    +0.174 C 
BRANCH  20  21
ATOM     21  NE  ARG A   1      42.969  35.384  21.563  0.00  0.00    -0.265 N 
ATOM     22  CZ  ARG A   1      42.670  34.648  22.631  0.00  0.00    +0.342 C 
ATOM     23  NH2 ARG A   1      42.052  35.199  23.671  0.00  0.00    -0.292 N 
ATOM     24 HH21 ARG A   1      41.820  34.621  24.504  0.00  0.00    +0.255 HD
ATOM     25 HH22 ARG A   1      41.801  36.208  23.652  0.00  0.00    +0.255 HD
ATOM     26  NH1 ARG A   1      42.981  33.356  22.655  0.00  0.00    -0.292 N 
ATOM     27 HH11 ARG A   1      42.748  32.780  23.489  0.00  0.00    +0.255 HD
ATOM     28 HH12 ARG A   1      43.458  32.921  21.840  0.00  0.00    +0.255 HD
ATOM     29  HE  ARG A   1      43.448  34.913  20.769  0.00  0.00    +0.259 HD
ENDBRANCH  20  21
ENDBRANCH  19  20
ENDBRANCH  18  19
ENDBRANCH   1  18
TORSDOF 10
REMARK  Name = ../refined-set-2016/3ebp/3ebp_pocket.pdb
REMARK  125 active torsions:
REMARK  status: ('A' for Active; 'I' for Inactive)
REMARK    1  A    between atoms: _2  and  _3
REMARK    2  A    between atoms: _8  and  _10
REMARK    3  A    between atoms: _10  and  _11
REMARK    4  A    between atoms: _10  and  _13
REMARK    5  A    between atoms: _13  and  _14
REMARK    6  A    between atoms: _19  and  _21
REMARK    7  A    between atoms: _21  and  _22
REMARK    8  A    between atoms: _21  and  _24
REMARK    9  A    between atoms: _24  and  _25
REMARK   10  A    between atoms: _28  and  _30
REMARK   11  A    between atoms: _30  and  _31
REMARK   12  A    between atoms: _30  and  _33
REMARK   13  A    between atoms: _33  and  _34
REMARK   14  A    between atoms: _39  and  _41
REMARK   15  A    between atoms: _41  and  _42
REMARK   16  A    between atoms: _41  and  _44
REMARK   17  A    between atoms: _44  and  _45
REMARK   18  A    between atoms: _51  and  _53
REMARK   19  A    between atoms: _53  and  _54
REMARK   20  A    between atoms: _53  and  _56
REMARK   21  A    between atoms: _56  and  _57
REMARK   22  A    between atoms: _63  and  _65
REMARK   23  A    between atoms: _65  and  _66
REMARK   24  A    between atoms: _65  and  _68
REMARK   25  A    between atoms: _68  and  _69
REMARK   26  A    between atoms: _69  and  _70
REMARK   27  A    between atoms: _73  and  _75
REMARK   28  A    between atoms: _75  and  _76
REMARK   29  A    between atoms: _75  and  _78
REMARK   30  A    between atoms: _78  and  _79
REMARK   31  A    between atoms: _82  and  _84
REMARK   32  A    between atoms: _84  and  _85
REMARK   33  A    between atoms: _84  and  _87
REMARK   34  A    between atoms: _87  and  _88
REMARK   35  A    between atoms: _92  and  _93
REMARK   36  A    between atoms: _98  and  _100
REMARK   37  A    between atoms: _100  and  _101
REMARK   38  A    between atoms: _100  and  _103
REMARK   39  A    between atoms: _103  and  _104
REMARK   40  A    between atoms: _104  and  _105
REMARK   41  A    between atoms: _108  and  _110
REMARK   42  A    between atoms: _110  and  _111
REMARK   43  A    between atoms: _114  and  _116
REMARK   44  A    between atoms: _116  and  _117
REMARK   45  A    between atoms: _116  and  _119
REMARK   46  A    between atoms: _119  and  _120
REMARK   47  A    between atoms: _123  and  _125
REMARK   48  A    between atoms: _125  and  _126
REMARK   49  A    between atoms: _125  and  _128
REMARK   50  A    between atoms: _128  and  _129
REMARK   51  A    between atoms: _129  and  _130
REMARK   52  A    between atoms: _130  and  _131
REMARK   53  A    between atoms: _140  and  _142
REMARK   54  A    between atoms: _142  and  _143
REMARK   55  A    between atoms: _142  and  _145
REMARK   56  A    between atoms: _145  and  _146
REMARK   57  A    between atoms: _149  and  _151
REMARK   58  A    between atoms: _151  and  _152
REMARK   59  A    between atoms: _151  and  _154
REMARK   60  A    between atoms: _154  and  _155
REMARK   61  A    between atoms: _160  and  _162
REMARK   62  A    between atoms: _162  and  _163
REMARK   63  A    between atoms: _162  and  _165
REMARK   64  A    between atoms: _165  and  _166
REMARK   65  A    between atoms: _166  and  _167
REMARK   66  A    between atoms: _170  and  _172
REMARK   67  A    between atoms: _172  and  _173
REMARK   68  A    between atoms: _172  and  _175
REMARK   69  A    between atoms: _175  and  _176
REMARK   70  A    between atoms: _181  and  _182
REMARK   71  A    between atoms: _184  and  _186
REMARK   72  A    between atoms: _186  and  _187
REMARK   73  A    between atoms: _186  and  _189
REMARK   74  A    between atoms: _189  and  _190
REMARK   75  A    between atoms: _190  and  _191
REMARK   76  A    between atoms: _191  and  _192
REMARK   77  A    between atoms: _192  and  _193
REMARK   78  A    between atoms: _197  and  _199
REMARK   79  A    between atoms: _199  and  _200
REMARK   80  A    between atoms: _203  and  _205
REMARK   81  A    between atoms: _205  and  _206
REMARK   82  A    between atoms: _210  and  _211
REMARK   83  A    between atoms: _216  and  _218
REMARK   84  A    between atoms: _218  and  _219
REMARK   85  A    between atoms: _221  and  _223
REMARK   86  A    between atoms: _223  and  _224
REMARK   87  A    between atoms: _223  and  _226
REMARK   88  A    between atoms: _226  and  _227
REMARK   89  A    between atoms: _232  and  _233
REMARK   90  A    between atoms: _235  and  _237
REMARK   91  A    between atoms: _237  and  _238
REMARK   92  A    between atoms: _237  and  _240
REMARK   93  A    between atoms: _240  and  _241
REMARK   94  A    between atoms: _246  and  _248
REMARK   95  A    between atoms: _248  and  _249
REMARK   96  A    between atoms: _248  and  _251
REMARK   97  A    between atoms: _251  and  _252
REMARK   98  A    between atoms: _252  and  _253
REMARK   99  A    between atoms: _255  and  _257
REMARK  100  A    between atoms: _257  and  _258
REMARK  101  A    between atoms: _261  and  _263
REMARK  102  A    between atoms: _263  and  _264
REMARK  103  A    between atoms: _263  and  _266
REMARK  104  A    between atoms: _266  and  _267
REMARK  105  A    between atoms: _267  and  _268
REMARK  106  A    between atoms: _268  and  _269
REMARK  107  A    between atoms: _269  and  _270
REMARK  108  A    between atoms: _274  and  _276
REMARK  109  A    between atoms: _276  and  _277
REMARK  110  A    between atoms: _276  and  _279
REMARK  111  A    between atoms: _279  and  _280
REMARK  112  A    between atoms: _283  and  _285
REMARK  113  A    between atoms: _285  and  _286
REMARK  114  A    between atoms: _285  and  _288
REMARK  115  A    between atoms: _288  and  _289
REMARK  116  A    between atoms: _294  and  _296
REMARK  117  A    between atoms: _296  and  _297
REMARK  118  A    between atoms: _296  and  _299
REMARK  119  A    between atoms: _299  and  _300
REMARK  120  A    between atoms: _300  and  _301
REMARK  121  A    between atoms: _301  and  _302
REMARK  122  A    between atoms: _311  and  _313
REMARK  123  A    between atoms: _313  and  _314
REMARK  124  A    between atoms: _313  and  _316
REMARK  125  A    between atoms: _316  and  _317
REMARK                            x       y       z     vdW  Elec       q    Type
REMARK                         _______ _______ _______ _____ _____    ______ ____
ROOT
ATOM      1  O   HOH     1      38.302  29.432  37.620  0.00  0.00    +0.000 OA
ENDROOT
TORSDOF 0
REMARK  Name = ../refined-set-2016/3ebp/3ebp_pocket.pdb
REMARK  125 active torsions:
REMARK  status: ('A' for Active; 'I' for Inactive)
REMARK    1  A    between atoms: _2  and  _3
REMARK    2  A    between atoms: _8  and  _10
REMARK    3  A    between atoms: _10  and  _11
REMARK    4  A    between atoms: _10  and  _13
REMARK    5  A    between atoms: _13  and  _14
REMARK    6  A    between atoms: _19  and  _21
REMARK    7  A    between atoms: _21  and  _22
REMARK    8  A    between atoms: _21  and  _24
REMARK    9  A    between atoms: _24  and  _25
REMARK   10  A    between atoms: _28  and  _30
REMARK   11  A    between atoms: _30  and  _31
REMARK   12  A    between atoms: _30  and  _33
REMARK   13  A    between atoms: _33  and  _34
REMARK   14  A    between atoms: _39  and  _41
REMARK   15  A    between atoms: _41  and  _42
REMARK   16  A    between atoms: _41  and  _44
REMARK   17  A    between atoms: _44  and  _45
REMARK   18  A    between atoms: _51  and  _53
REMARK   19  A    between atoms: _53  and  _54
REMARK   20  A    between atoms: _53  and  _56
REMARK   21  A    between atoms: _56  and  _57
REMARK   22  A    between atoms: _63  and  _65
REMARK   23  A    between atoms: _65  and  _66
REMARK   24  A    between atoms: _65  and  _68
REMARK   25  A    between atoms: _68  and  _69
REMARK   26  A    between atoms: _69  and  _70
REMARK   27  A    between atoms: _73  and  _75
REMARK   28  A    between atoms: _75  and  _76
REMARK   29  A    between atoms: _75  and  _78
REMARK   30  A    between atoms: _78  and  _79
REMARK   31  A    between atoms: _82  and  _84
REMARK   32  A    between atoms: _84  and  _85
REMARK   33  A    between atoms: _84  and  _87
REMARK   34  A    between atoms: _87  and  _88
REMARK   35  A    between atoms: _92  and  _93
REMARK   36  A    between atoms: _98  and  _100
REMARK   37  A    between atoms: _100  and  _101
REMARK   38  A    between atoms: _100  and  _103
REMARK   39  A    between atoms: _103  and  _104
REMARK   40  A    between atoms: _104  and  _105
REMARK   41  A    between atoms: _108  and  _110
REMARK   42  A    between atoms: _110  and  _111
REMARK   43  A    between atoms: _114  and  _116
REMARK   44  A    between atoms: _116  and  _117
REMARK   45  A    between atoms: _116  and  _119
REMARK   46  A    between atoms: _119  and  _120
REMARK   47  A    between atoms: _123  and  _125
REMARK   48  A    between atoms: _125  and  _126
REMARK   49  A    between atoms: _125  and  _128
REMARK   50  A    between atoms: _128  and  _129
REMARK   51  A    between atoms: _129  and  _130
REMARK   52  A    between atoms: _130  and  _131
REMARK   53  A    between atoms: _140  and  _142
REMARK   54  A    between atoms: _142  and  _143
REMARK   55  A    between atoms: _142  and  _145
REMARK   56  A    between atoms: _145  and  _146
REMARK   57  A    between atoms: _149  and  _151
REMARK   58  A    between atoms: _151  and  _152
REMARK   59  A    between atoms: _151  and  _154
REMARK   60  A    between atoms: _154  and  _155
REMARK   61  A    between atoms: _160  and  _162
REMARK   62  A    between atoms: _162  and  _163
REMARK   63  A    between atoms: _162  and  _165
REMARK   64  A    between atoms: _165  and  _166
REMARK   65  A    between atoms: _166  and  _167
REMARK   66  A    between atoms: _170  and  _172
REMARK   67  A    between atoms: _172  and  _173
REMARK   68  A    between atoms: _172  and  _175
REMARK   69  A    between atoms: _175  and  _176
REMARK   70  A    between atoms: _181  and  _182
REMARK   71  A    between atoms: _184  and  _186
REMARK   72  A    between atoms: _186  and  _187
REMARK   73  A    between atoms: _186  and  _189
REMARK   74  A    between atoms: _189  and  _190
REMARK   75  A    between atoms: _190  and  _191
REMARK   76  A    between atoms: _191  and  _192
REMARK   77  A    between atoms: _192  and  _193
REMARK   78  A    between atoms: _197  and  _199
REMARK   79  A    between atoms: _199  and  _200
REMARK   80  A    between atoms: _203  and  _205
REMARK   81  A    between atoms: _205  and  _206
REMARK   82  A    between atoms: _210  and  _211
REMARK   83  A    between atoms: _216  and  _218
REMARK   84  A    between atoms: _218  and  _219
REMARK   85  A    between atoms: _221  and  _223
REMARK   86  A    between atoms: _223  and  _224
REMARK   87  A    between atoms: _223  and  _226
REMARK   88  A    between atoms: _226  and  _227
REMARK   89  A    between atoms: _232  and  _233
REMARK   90  A    between atoms: _235  and  _237
REMARK   91  A    between atoms: _237  and  _238
REMARK   92  A    between atoms: _237  and  _240
REMARK   93  A    between atoms: _240  and  _241
REMARK   94  A    between atoms: _246  and  _248
REMARK   95  A    between atoms: _248  and  _249
REMARK   96  A    between atoms: _248  and  _251
REMARK   97  A    between atoms: _251  and  _252
REMARK   98  A    between atoms: _252  and  _253
REMARK   99  A    between atoms: _255  and  _257
REMARK  100  A    between atoms: _257  and  _258
REMARK  101  A    between atoms: _261  and  _263
REMARK  102  A    between atoms: _263  and  _264
REMARK  103  A    between atoms: _263  and  _266
REMARK  104  A    between atoms: _266  and  _267
REMARK  105  A    between atoms: _267  and  _268
REMARK  106  A    between atoms: _268  and  _269
REMARK  107  A    between atoms: _269  and  _270
REMARK  108  A    between atoms: _274  and  _276
REMARK  109  A    between atoms: _276  and  _277
REMARK  110  A    between atoms: _276  and  _279
REMARK  111  A    between atoms: _279  and  _280
REMARK  112  A    between atoms: _283  and  _285
REMARK  113  A    between atoms: _285  and  _286
REMARK  114  A    between atoms: _285  and  _288
REMARK  115  A    between atoms: _288  and  _289
REMARK  116  A    between atoms: _294  and  _296
REMARK  117  A    between atoms: _296  and  _297
REMARK  118  A    between atoms: _296  and  _299
REMARK  119  A    between atoms: _299  and  _300
REMARK  120  A    between atoms: _300  and  _301
REMARK  121  A    between atoms: _301  and  _302
REMARK  122  A    between atoms: _311  and  _313
REMARK  123  A    between atoms: _313  and  _314
REMARK  124  A    between atoms: _313  and  _316
REMARK  125  A    between atoms: _316  and  _317
REMARK                            x       y       z     vdW  Elec       q    Type
REMARK                         _______ _______ _______ _____ _____    ______ ____
ROOT
ATOM      1  O   HOH     1      35.988  34.885  40.068  0.00  0.00    +0.000 OA
ENDROOT
TORSDOF 0
REMARK  Name = ../refined-set-2016/3ebp/3ebp_pocket.pdb
REMARK  125 active torsions:
REMARK  status: ('A' for Active; 'I' for Inactive)
REMARK    1  A    between atoms: _2  and  _3
REMARK    2  A    between atoms: _8  and  _10
REMARK    3  A    between atoms: _10  and  _11
REMARK    4  A    between atoms: _10  and  _13
REMARK    5  A    between atoms: _13  and  _14
REMARK    6  A    between atoms: _19  and  _21
REMARK    7  A    between atoms: _21  and  _22
REMARK    8  A    between atoms: _21  and  _24
REMARK    9  A    between atoms: _24  and  _25
REMARK   10  A    between atoms: _28  and  _30
REMARK   11  A    between atoms: _30  and  _31
REMARK   12  A    between atoms: _30  and  _33
REMARK   13  A    between atoms: _33  and  _34
REMARK   14  A    between atoms: _39  and  _41
REMARK   15  A    between atoms: _41  and  _42
REMARK   16  A    between atoms: _41  and  _44
REMARK   17  A    between atoms: _44  and  _45
REMARK   18  A    between atoms: _51  and  _53
REMARK   19  A    between atoms: _53  and  _54
REMARK   20  A    between atoms: _53  and  _56
REMARK   21  A    between atoms: _56  and  _57
REMARK   22  A    between atoms: _63  and  _65
REMARK   23  A    between atoms: _65  and  _66
REMARK   24  A    between atoms: _65  and  _68
REMARK   25  A    between atoms: _68  and  _69
REMARK   26  A    between atoms: _69  and  _70
REMARK   27  A    between atoms: _73  and  _75
REMARK   28  A    between atoms: _75  and  _76
REMARK   29  A    between atoms: _75  and  _78
REMARK   30  A    between atoms: _78  and  _79
REMARK   31  A    between atoms: _82  and  _84
REMARK   32  A    between atoms: _84  and  _85
REMARK   33  A    between atoms: _84  and  _87
REMARK   34  A    between atoms: _87  and  _88
REMARK   35  A    between atoms: _92  and  _93
REMARK   36  A    between atoms: _98  and  _100
REMARK   37  A    between atoms: _100  and  _101
REMARK   38  A    between atoms: _100  and  _103
REMARK   39  A    between atoms: _103  and  _104
REMARK   40  A    between atoms: _104  and  _105
REMARK   41  A    between atoms: _108  and  _110
REMARK   42  A    between atoms: _110  and  _111
REMARK   43  A    between atoms: _114  and  _116
REMARK   44  A    between atoms: _116  and  _117
REMARK   45  A    between atoms: _116  and  _119
REMARK   46  A    between atoms: _119  and  _120
REMARK   47  A    between atoms: _123  and  _125
REMARK   48  A    between atoms: _125  and  _126
REMARK   49  A    between atoms: _125  and  _128
REMARK   50  A    between atoms: _128  and  _129
REMARK   51  A    between atoms: _129  and  _130
REMARK   52  A    between atoms: _130  and  _131
REMARK   53  A    between atoms: _140  and  _142
REMARK   54  A    between atoms: _142  and  _143
REMARK   55  A    between atoms: _142  and  _145
REMARK   56  A    between atoms: _145  and  _146
REMARK   57  A    between atoms: _149  and  _151
REMARK   58  A    between atoms: _151  and  _152
REMARK   59  A    between atoms: _151  and  _154
REMARK   60  A    between atoms: _154  and  _155
REMARK   61  A    between atoms: _160  and  _162
REMARK   62  A    between atoms: _162  and  _163
REMARK   63  A    between atoms: _162  and  _165
REMARK   64  A    between atoms: _165  and  _166
REMARK   65  A    between atoms: _166  and  _167
REMARK   66  A    between atoms: _170  and  _172
REMARK   67  A    between atoms: _172  and  _173
REMARK   68  A    between atoms: _172  and  _175
REMARK   69  A    between atoms: _175  and  _176
REMARK   70  A    between atoms: _181  and  _182
REMARK   71  A    between atoms: _184  and  _186
REMARK   72  A    between atoms: _186  and  _187
REMARK   73  A    between atoms: _186  and  _189
REMARK   74  A    between atoms: _189  and  _190
REMARK   75  A    between atoms: _190  and  _191
REMARK   76  A    between atoms: _191  and  _192
REMARK   77  A    between atoms: _192  and  _193
REMARK   78  A    between atoms: _197  and  _199
REMARK   79  A    between atoms: _199  and  _200
REMARK   80  A    between atoms: _203  and  _205
REMARK   81  A    between atoms: _205  and  _206
REMARK   82  A    between atoms: _210  and  _211
REMARK   83  A    between atoms: _216  and  _218
REMARK   84  A    between atoms: _218  and  _219
REMARK   85  A    between atoms: _221  and  _223
REMARK   86  A    between atoms: _223  and  _224
REMARK   87  A    between atoms: _223  and  _226
REMARK   88  A    between atoms: _226  and  _227
REMARK   89  A    between atoms: _232  and  _233
REMARK   90  A    between atoms: _235  and  _237
REMARK   91  A    between atoms: _237  and  _238
REMARK   92  A    between atoms: _237  and  _240
REMARK   93  A    between atoms: _240  and  _241
REMARK   94  A    between atoms: _246  and  _248
REMARK   95  A    between atoms: _248  and  _249
REMARK   96  A    between atoms: _248  and  _251
REMARK   97  A    between atoms: _251  and  _252
REMARK   98  A    between atoms: _252  and  _253
REMARK   99  A    between atoms: _255  and  _257
REMARK  100  A    between atoms: _257  and  _258
REMARK  101  A    between atoms: _261  and  _263
REMARK  102  A    between atoms: _263  and  _264
REMARK  103  A    between atoms: _263  and  _266
REMARK  104  A    between atoms: _266  and  _267
REMARK  105  A    between atoms: _267  and  _268
REMARK  106  A    between atoms: _268  and  _269
REMARK  107  A    between atoms: _269  and  _270
REMARK  108  A    between atoms: _274  and  _276
REMARK  109  A    between atoms: _276  and  _277
REMARK  110  A    between atoms: _276  and  _279
REMARK  111  A    between atoms: _279  and  _280
REMARK  112  A    between atoms: _283  and  _285
REMARK  113  A    between atoms: _285  and  _286
REMARK  114  A    between atoms: _285  and  _288
REMARK  115  A    between atoms: _288  and  _289
REMARK  116  A    between atoms: _294  and  _296
REMARK  117  A    between atoms: _296  and  _297
REMARK  118  A    between atoms: _296  and  _299
REMARK  119  A    between atoms: _299  and  _300
REMARK  120  A    between atoms: _300  and  _301
REMARK  121  A    between atoms: _301  and  _302
REMARK  122  A    between atoms: _311  and  _313
REMARK  123  A    between atoms: _313  and  _314
REMARK  124  A    between atoms: _313  and  _316
REMARK  125  A    between atoms: _316  and  _317
REMARK                            x       y       z     vdW  Elec       q    Type
REMARK                         _______ _______ _______ _____ _____    ______ ____
ROOT
ATOM      1  O   HOH     1      35.241  36.069  37.120  0.00  0.00    +0.000 OA
ENDROOT
TORSDOF 0
REMARK  Name = ../refined-set-2016/3ebp/3ebp_pocket.pdb
REMARK  125 active torsions:
REMARK  status: ('A' for Active; 'I' for Inactive)
REMARK    1  A    between atoms: _2  and  _3
REMARK    2  A    between atoms: _8  and  _10
REMARK    3  A    between atoms: _10  and  _11
REMARK    4  A    between atoms: _10  and  _13
REMARK    5  A    between atoms: _13  and  _14
REMARK    6  A    between atoms: _19  and  _21
REMARK    7  A    between atoms: _21  and  _22
REMARK    8  A    between atoms: _21  and  _24
REMARK    9  A    between atoms: _24  and  _25
REMARK   10  A    between atoms: _28  and  _30
REMARK   11  A    between atoms: _30  and  _31
REMARK   12  A    between atoms: _30  and  _33
REMARK   13  A    between atoms: _33  and  _34
REMARK   14  A    between atoms: _39  and  _41
REMARK   15  A    between atoms: _41  and  _42
REMARK   16  A    between atoms: _41  and  _44
REMARK   17  A    between atoms: _44  and  _45
REMARK   18  A    between atoms: _51  and  _53
REMARK   19  A    between atoms: _53  and  _54
REMARK   20  A    between atoms: _53  and  _56
REMARK   21  A    between atoms: _56  and  _57
REMARK   22  A    between atoms: _63  and  _65
REMARK   23  A    between atoms: _65  and  _66
REMARK   24  A    between atoms: _65  and  _68
REMARK   25  A    between atoms: _68  and  _69
REMARK   26  A    between atoms: _69  and  _70
REMARK   27  A    between atoms: _73  and  _75
REMARK   28  A    between atoms: _75  and  _76
REMARK   29  A    between atoms: _75  and  _78
REMARK   30  A    between atoms: _78  and  _79
REMARK   31  A    between atoms: _82  and  _84
REMARK   32  A    between atoms: _84  and  _85
REMARK   33  A    between atoms: _84  and  _87
REMARK   34  A    between atoms: _87  and  _88
REMARK   35  A    between atoms: _92  and  _93
REMARK   36  A    between atoms: _98  and  _100
REMARK   37  A    between atoms: _100  and  _101
REMARK   38  A    between atoms: _100  and  _103
REMARK   39  A    between atoms: _103  and  _104
REMARK   40  A    between atoms: _104  and  _105
REMARK   41  A    between atoms: _108  and  _110
REMARK   42  A    between atoms: _110  and  _111
REMARK   43  A    between atoms: _114  and  _116
REMARK   44  A    between atoms: _116  and  _117
REMARK   45  A    between atoms: _116  and  _119
REMARK   46  A    between atoms: _119  and  _120
REMARK   47  A    between atoms: _123  and  _125
REMARK   48  A    between atoms: _125  and  _126
REMARK   49  A    between atoms: _125  and  _128
REMARK   50  A    between atoms: _128  and  _129
REMARK   51  A    between atoms: _129  and  _130
REMARK   52  A    between atoms: _130  and  _131
REMARK   53  A    between atoms: _140  and  _142
REMARK   54  A    between atoms: _142  and  _143
REMARK   55  A    between atoms: _142  and  _145
REMARK   56  A    between atoms: _145  and  _146
REMARK   57  A    between atoms: _149  and  _151
REMARK   58  A    between atoms: _151  and  _152
REMARK   59  A    between atoms: _151  and  _154
REMARK   60  A    between atoms: _154  and  _155
REMARK   61  A    between atoms: _160  and  _162
REMARK   62  A    between atoms: _162  and  _163
REMARK   63  A    between atoms: _162  and  _165
REMARK   64  A    between atoms: _165  and  _166
REMARK   65  A    between atoms: _166  and  _167
REMARK   66  A    between atoms: _170  and  _172
REMARK   67  A    between atoms: _172  and  _173
REMARK   68  A    between atoms: _172  and  _175
REMARK   69  A    between atoms: _175  and  _176
REMARK   70  A    between atoms: _181  and  _182
REMARK   71  A    between atoms: _184  and  _186
REMARK   72  A    between atoms: _186  and  _187
REMARK   73  A    between atoms: _186  and  _189
REMARK   74  A    between atoms: _189  and  _190
REMARK   75  A    between atoms: _190  and  _191
REMARK   76  A    between atoms: _191  and  _192
REMARK   77  A    between atoms: _192  and  _193
REMARK   78  A    between atoms: _197  and  _199
REMARK   79  A    between atoms: _199  and  _200
REMARK   80  A    between atoms: _203  and  _205
REMARK   81  A    between atoms: _205  and  _206
REMARK   82  A    between atoms: _210  and  _211
REMARK   83  A    between atoms: _216  and  _218
REMARK   84  A    between atoms: _218  and  _219
REMARK   85  A    between atoms: _221  and  _223
REMARK   86  A    between atoms: _223  and  _224
REMARK   87  A    between atoms: _223  and  _226
REMARK   88  A    between atoms: _226  and  _227
REMARK   89  A    between atoms: _232  and  _233
REMARK   90  A    between atoms: _235  and  _237
REMARK   91  A    between atoms: _237  and  _238
REMARK   92  A    between atoms: _237  and  _240
REMARK   93  A    between atoms: _240  and  _241
REMARK   94  A    between atoms: _246  and  _248
REMARK   95  A    between atoms: _248  and  _249
REMARK   96  A    between atoms: _248  and  _251
REMARK   97  A    between atoms: _251  and  _252
REMARK   98  A    between atoms: _252  and  _253
REMARK   99  A    between atoms: _255  and  _257
REMARK  100  A    between atoms: _257  and  _258
REMARK  101  A    between atoms: _261  and  _263
REMARK  102  A    between atoms: _263  and  _264
REMARK  103  A    between atoms: _263  and  _266
REMARK  104  A    between atoms: _266  and  _267
REMARK  105  A    between atoms: _267  and  _268
REMARK  106  A    between atoms: _268  and  _269
REMARK  107  A    between atoms: _269  and  _270
REMARK  108  A    between atoms: _274  and  _276
REMARK  109  A    between atoms: _276  and  _277
REMARK  110  A    between atoms: _276  and  _279
REMARK  111  A    between atoms: _279  and  _280
REMARK  112  A    between atoms: _283  and  _285
REMARK  113  A    between atoms: _285  and  _286
REMARK  114  A    between atoms: _285  and  _288
REMARK  115  A    between atoms: _288  and  _289
REMARK  116  A    between atoms: _294  and  _296
REMARK  117  A    between atoms: _296  and  _297
REMARK  118  A    between atoms: _296  and  _299
REMARK  119  A    between atoms: _299  and  _300
REMARK  120  A    between atoms: _300  and  _301
REMARK  121  A    between atoms: _301  and  _302
REMARK  122  A    between atoms: _311  and  _313
REMARK  123  A    between atoms: _313  and  _314
REMARK  124  A    between atoms: _313  and  _316
REMARK  125  A    between atoms: _316  and  _317
REMARK                            x       y       z     vdW  Elec       q    Type
REMARK                         _______ _______ _______ _____ _____    ______ ____
ROOT
ATOM      1  O   HOH     1      33.989  32.667  31.571  0.00  0.00    +0.000 OA
ENDROOT
TORSDOF 0
REMARK  Name = ../refined-set-2016/3ebp/3ebp_pocket.pdb
REMARK  125 active torsions:
REMARK  status: ('A' for Active; 'I' for Inactive)
REMARK    1  A    between atoms: _2  and  _3
REMARK    2  A    between atoms: _8  and  _10
REMARK    3  A    between atoms: _10  and  _11
REMARK    4  A    between atoms: _10  and  _13
REMARK    5  A    between atoms: _13  and  _14
REMARK    6  A    between atoms: _19  and  _21
REMARK    7  A    between atoms: _21  and  _22
REMARK    8  A    between atoms: _21  and  _24
REMARK    9  A    between atoms: _24  and  _25
REMARK   10  A    between atoms: _28  and  _30
REMARK   11  A    between atoms: _30  and  _31
REMARK   12  A    between atoms: _30  and  _33
REMARK   13  A    between atoms: _33  and  _34
REMARK   14  A    between atoms: _39  and  _41
REMARK   15  A    between atoms: _41  and  _42
REMARK   16  A    between atoms: _41  and  _44
REMARK   17  A    between atoms: _44  and  _45
REMARK   18  A    between atoms: _51  and  _53
REMARK   19  A    between atoms: _53  and  _54
REMARK   20  A    between atoms: _53  and  _56
REMARK   21  A    between atoms: _56  and  _57
REMARK   22  A    between atoms: _63  and  _65
REMARK   23  A    between atoms: _65  and  _66
REMARK   24  A    between atoms: _65  and  _68
REMARK   25  A    between atoms: _68  and  _69
REMARK   26  A    between atoms: _69  and  _70
REMARK   27  A    between atoms: _73  and  _75
REMARK   28  A    between atoms: _75  and  _76
REMARK   29  A    between atoms: _75  and  _78
REMARK   30  A    between atoms: _78  and  _79
REMARK   31  A    between atoms: _82  and  _84
REMARK   32  A    between atoms: _84  and  _85
REMARK   33  A    between atoms: _84  and  _87
REMARK   34  A    between atoms: _87  and  _88
REMARK   35  A    between atoms: _92  and  _93
REMARK   36  A    between atoms: _98  and  _100
REMARK   37  A    between atoms: _100  and  _101
REMARK   38  A    between atoms: _100  and  _103
REMARK   39  A    between atoms: _103  and  _104
REMARK   40  A    between atoms: _104  and  _105
REMARK   41  A    between atoms: _108  and  _110
REMARK   42  A    between atoms: _110  and  _111
REMARK   43  A    between atoms: _114  and  _116
REMARK   44  A    between atoms: _116  and  _117
REMARK   45  A    between atoms: _116  and  _119
REMARK   46  A    between atoms: _119  and  _120
REMARK   47  A    between atoms: _123  and  _125
REMARK   48  A    between atoms: _125  and  _126
REMARK   49  A    between atoms: _125  and  _128
REMARK   50  A    between atoms: _128  and  _129
REMARK   51  A    between atoms: _129  and  _130
REMARK   52  A    between atoms: _130  and  _131
REMARK   53  A    between atoms: _140  and  _142
REMARK   54  A    between atoms: _142  and  _143
REMARK   55  A    between atoms: _142  and  _145
REMARK   56  A    between atoms: _145  and  _146
REMARK   57  A    between atoms: _149  and  _151
REMARK   58  A    between atoms: _151  and  _152
REMARK   59  A    between atoms: _151  and  _154
REMARK   60  A    between atoms: _154  and  _155
REMARK   61  A    between atoms: _160  and  _162
REMARK   62  A    between atoms: _162  and  _163
REMARK   63  A    between atoms: _162  and  _165
REMARK   64  A    between atoms: _165  and  _166
REMARK   65  A    between atoms: _166  and  _167
REMARK   66  A    between atoms: _170  and  _172
REMARK   67  A    between atoms: _172  and  _173
REMARK   68  A    between atoms: _172  and  _175
REMARK   69  A    between atoms: _175  and  _176
REMARK   70  A    between atoms: _181  and  _182
REMARK   71  A    between atoms: _184  and  _186
REMARK   72  A    between atoms: _186  and  _187
REMARK   73  A    between atoms: _186  and  _189
REMARK   74  A    between atoms: _189  and  _190
REMARK   75  A    between atoms: _190  and  _191
REMARK   76  A    between atoms: _191  and  _192
REMARK   77  A    between atoms: _192  and  _193
REMARK   78  A    between atoms: _197  and  _199
REMARK   79  A    between atoms: _199  and  _200
REMARK   80  A    between atoms: _203  and  _205
REMARK   81  A    between atoms: _205  and  _206
REMARK   82  A    between atoms: _210  and  _211
REMARK   83  A    between atoms: _216  and  _218
REMARK   84  A    between atoms: _218  and  _219
REMARK   85  A    between atoms: _221  and  _223
REMARK   86  A    between atoms: _223  and  _224
REMARK   87  A    between atoms: _223  and  _226
REMARK   88  A    between atoms: _226  and  _227
REMARK   89  A    between atoms: _232  and  _233
REMARK   90  A    between atoms: _235  and  _237
REMARK   91  A    between atoms: _237  and  _238
REMARK   92  A    between atoms: _237  and  _240
REMARK   93  A    between atoms: _240  and  _241
REMARK   94  A    between atoms: _246  and  _248
REMARK   95  A    between atoms: _248  and  _249
REMARK   96  A    between atoms: _248  and  _251
REMARK   97  A    between atoms: _251  and  _252
REMARK   98  A    between atoms: _252  and  _253
REMARK   99  A    between atoms: _255  and  _257
REMARK  100  A    between atoms: _257  and  _258
REMARK  101  A    between atoms: _261  and  _263
REMARK  102  A    between atoms: _263  and  _264
REMARK  103  A    between atoms: _263  and  _266
REMARK  104  A    between atoms: _266  and  _267
REMARK  105  A    between atoms: _267  and  _268
REMARK  106  A    between atoms: _268  and  _269
REMARK  107  A    between atoms: _269  and  _270
REMARK  108  A    between atoms: _274  and  _276
REMARK  109  A    between atoms: _276  and  _277
REMARK  110  A    between atoms: _276  and  _279
REMARK  111  A    between atoms: _279  and  _280
REMARK  112  A    between atoms: _283  and  _285
REMARK  113  A    between atoms: _285  and  _286
REMARK  114  A    between atoms: _285  and  _288
REMARK  115  A    between atoms: _288  and  _289
REMARK  116  A    between atoms: _294  and  _296
REMARK  117  A    between atoms: _296  and  _297
REMARK  118  A    between atoms: _296  and  _299
REMARK  119  A    between atoms: _299  and  _300
REMARK  120  A    between atoms: _300  and  _301
REMARK  121  A    between atoms: _301  and  _302
REMARK  122  A    between atoms: _311  and  _313
REMARK  123  A    between atoms: _313  and  _314
REMARK  124  A    between atoms: _313  and  _316
REMARK  125  A    between atoms: _316  and  _317
REMARK                            x       y       z     vdW  Elec       q    Type
REMARK                         _______ _______ _______ _____ _____    ______ ____
ROOT
ATOM      1  O   HOH     1      31.654  33.698  30.842  0.00  0.00    +0.000 OA
ENDROOT
TORSDOF 0
REMARK  Name = ../refined-set-2016/3ebp/3ebp_pocket.pdb
REMARK  125 active torsions:
REMARK  status: ('A' for Active; 'I' for Inactive)
REMARK    1  A    between atoms: _2  and  _3
REMARK    2  A    between atoms: _8  and  _10
REMARK    3  A    between atoms: _10  and  _11
REMARK    4  A    between atoms: _10  and  _13
REMARK    5  A    between atoms: _13  and  _14
REMARK    6  A    between atoms: _19  and  _21
REMARK    7  A    between atoms: _21  and  _22
REMARK    8  A    between atoms: _21  and  _24
REMARK    9  A    between atoms: _24  and  _25
REMARK   10  A    between atoms: _28  and  _30
REMARK   11  A    between atoms: _30  and  _31
REMARK   12  A    between atoms: _30  and  _33
REMARK   13  A    between atoms: _33  and  _34
REMARK   14  A    between atoms: _39  and  _41
REMARK   15  A    between atoms: _41  and  _42
REMARK   16  A    between atoms: _41  and  _44
REMARK   17  A    between atoms: _44  and  _45
REMARK   18  A    between atoms: _51  and  _53
REMARK   19  A    between atoms: _53  and  _54
REMARK   20  A    between atoms: _53  and  _56
REMARK   21  A    between atoms: _56  and  _57
REMARK   22  A    between atoms: _63  and  _65
REMARK   23  A    between atoms: _65  and  _66
REMARK   24  A    between atoms: _65  and  _68
REMARK   25  A    between atoms: _68  and  _69
REMARK   26  A    between atoms: _69  and  _70
REMARK   27  A    between atoms: _73  and  _75
REMARK   28  A    between atoms: _75  and  _76
REMARK   29  A    between atoms: _75  and  _78
REMARK   30  A    between atoms: _78  and  _79
REMARK   31  A    between atoms: _82  and  _84
REMARK   32  A    between atoms: _84  and  _85
REMARK   33  A    between atoms: _84  and  _87
REMARK   34  A    between atoms: _87  and  _88
REMARK   35  A    between atoms: _92  and  _93
REMARK   36  A    between atoms: _98  and  _100
REMARK   37  A    between atoms: _100  and  _101
REMARK   38  A    between atoms: _100  and  _103
REMARK   39  A    between atoms: _103  and  _104
REMARK   40  A    between atoms: _104  and  _105
REMARK   41  A    between atoms: _108  and  _110
REMARK   42  A    between atoms: _110  and  _111
REMARK   43  A    between atoms: _114  and  _116
REMARK   44  A    between atoms: _116  and  _117
REMARK   45  A    between atoms: _116  and  _119
REMARK   46  A    between atoms: _119  and  _120
REMARK   47  A    between atoms: _123  and  _125
REMARK   48  A    between atoms: _125  and  _126
REMARK   49  A    between atoms: _125  and  _128
REMARK   50  A    between atoms: _128  and  _129
REMARK   51  A    between atoms: _129  and  _130
REMARK   52  A    between atoms: _130  and  _131
REMARK   53  A    between atoms: _140  and  _142
REMARK   54  A    between atoms: _142  and  _143
REMARK   55  A    between atoms: _142  and  _145
REMARK   56  A    between atoms: _145  and  _146
REMARK   57  A    between atoms: _149  and  _151
REMARK   58  A    between atoms: _151  and  _152
REMARK   59  A    between atoms: _151  and  _154
REMARK   60  A    between atoms: _154  and  _155
REMARK   61  A    between atoms: _160  and  _162
REMARK   62  A    between atoms: _162  and  _163
REMARK   63  A    between atoms: _162  and  _165
REMARK   64  A    between atoms: _165  and  _166
REMARK   65  A    between atoms: _166  and  _167
REMARK   66  A    between atoms: _170  and  _172
REMARK   67  A    between atoms: _172  and  _173
REMARK   68  A    between atoms: _172  and  _175
REMARK   69  A    between atoms: _175  and  _176
REMARK   70  A    between atoms: _181  and  _182
REMARK   71  A    between atoms: _184  and  _186
REMARK   72  A    between atoms: _186  and  _187
REMARK   73  A    between atoms: _186  and  _189
REMARK   74  A    between atoms: _189  and  _190
REMARK   75  A    between atoms: _190  and  _191
REMARK   76  A    between atoms: _191  and  _192
REMARK   77  A    between atoms: _192  and  _193
REMARK   78  A    between atoms: _197  and  _199
REMARK   79  A    between atoms: _199  and  _200
REMARK   80  A    between atoms: _203  and  _205
REMARK   81  A    between atoms: _205  and  _206
REMARK   82  A    between atoms: _210  and  _211
REMARK   83  A    between atoms: _216  and  _218
REMARK   84  A    between atoms: _218  and  _219
REMARK   85  A    between atoms: _221  and  _223
REMARK   86  A    between atoms: _223  and  _224
REMARK   87  A    between atoms: _223  and  _226
REMARK   88  A    between atoms: _226  and  _227
REMARK   89  A    between atoms: _232  and  _233
REMARK   90  A    between atoms: _235  and  _237
REMARK   91  A    between atoms: _237  and  _238
REMARK   92  A    between atoms: _237  and  _240
REMARK   93  A    between atoms: _240  and  _241
REMARK   94  A    between atoms: _246  and  _248
REMARK   95  A    between atoms: _248  and  _249
REMARK   96  A    between atoms: _248  and  _251
REMARK   97  A    between atoms: _251  and  _252
REMARK   98  A    between atoms: _252  and  _253
REMARK   99  A    between atoms: _255  and  _257
REMARK  100  A    between atoms: _257  and  _258
REMARK  101  A    between atoms: _261  and  _263
REMARK  102  A    between atoms: _263  and  _264
REMARK  103  A    between atoms: _263  and  _266
REMARK  104  A    between atoms: _266  and  _267
REMARK  105  A    between atoms: _267  and  _268
REMARK  106  A    between atoms: _268  and  _269
REMARK  107  A    between atoms: _269  and  _270
REMARK  108  A    between atoms: _274  and  _276
REMARK  109  A    between atoms: _276  and  _277
REMARK  110  A    between atoms: _276  and  _279
REMARK  111  A    between atoms: _279  and  _280
REMARK  112  A    between atoms: _283  and  _285
REMARK  113  A    between atoms: _285  and  _286
REMARK  114  A    between atoms: _285  and  _288
REMARK  115  A    between atoms: _288  and  _289
REMARK  116  A    between atoms: _294  and  _296
REMARK  117  A    between atoms: _296  and  _297
REMARK  118  A    between atoms: _296  and  _299
REMARK  119  A    between atoms: _299  and  _300
REMARK  120  A    between atoms: _300  and  _301
REMARK  121  A    between atoms: _301  and  _302
REMARK  122  A    between atoms: _311  and  _313
REMARK  123  A    between atoms: _313  and  _314
REMARK  124  A    between atoms: _313  and  _316
REMARK  125  A    between atoms: _316  and  _317
REMARK                            x       y       z     vdW  Elec       q    Type
REMARK                         _______ _______ _______ _____ _____    ______ ____
ROOT
ATOM      1  O   HOH     1      35.865  33.819  25.139  0.00  0.00    +0.000 OA
ENDROOT
TORSDOF 0
REMARK  Name = ../refined-set-2016/3ebp/3ebp_pocket.pdb
REMARK  125 active torsions:
REMARK  status: ('A' for Active; 'I' for Inactive)
REMARK    1  A    between atoms: _2  and  _3
REMARK    2  A    between atoms: _8  and  _10
REMARK    3  A    between atoms: _10  and  _11
REMARK    4  A    between atoms: _10  and  _13
REMARK    5  A    between atoms: _13  and  _14
REMARK    6  A    between atoms: _19  and  _21
REMARK    7  A    between atoms: _21  and  _22
REMARK    8  A    between atoms: _21  and  _24
REMARK    9  A    between atoms: _24  and  _25
REMARK   10  A    between atoms: _28  and  _30
REMARK   11  A    between atoms: _30  and  _31
REMARK   12  A    between atoms: _30  and  _33
REMARK   13  A    between atoms: _33  and  _34
REMARK   14  A    between atoms: _39  and  _41
REMARK   15  A    between atoms: _41  and  _42
REMARK   16  A    between atoms: _41  and  _44
REMARK   17  A    between atoms: _44  and  _45
REMARK   18  A    between atoms: _51  and  _53
REMARK   19  A    between atoms: _53  and  _54
REMARK   20  A    between atoms: _53  and  _56
REMARK   21  A    between atoms: _56  and  _57
REMARK   22  A    between atoms: _63  and  _65
REMARK   23  A    between atoms: _65  and  _66
REMARK   24  A    between atoms: _65  and  _68
REMARK   25  A    between atoms: _68  and  _69
REMARK   26  A    between atoms: _69  and  _70
REMARK   27  A    between atoms: _73  and  _75
REMARK   28  A    between atoms: _75  and  _76
REMARK   29  A    between atoms: _75  and  _78
REMARK   30  A    between atoms: _78  and  _79
REMARK   31  A    between atoms: _82  and  _84
REMARK   32  A    between atoms: _84  and  _85
REMARK   33  A    between atoms: _84  and  _87
REMARK   34  A    between atoms: _87  and  _88
REMARK   35  A    between atoms: _92  and  _93
REMARK   36  A    between atoms: _98  and  _100
REMARK   37  A    between atoms: _100  and  _101
REMARK   38  A    between atoms: _100  and  _103
REMARK   39  A    between atoms: _103  and  _104
REMARK   40  A    between atoms: _104  and  _105
REMARK   41  A    between atoms: _108  and  _110
REMARK   42  A    between atoms: _110  and  _111
REMARK   43  A    between atoms: _114  and  _116
REMARK   44  A    between atoms: _116  and  _117
REMARK   45  A    between atoms: _116  and  _119
REMARK   46  A    between atoms: _119  and  _120
REMARK   47  A    between atoms: _123  and  _125
REMARK   48  A    between atoms: _125  and  _126
REMARK   49  A    between atoms: _125  and  _128
REMARK   50  A    between atoms: _128  and  _129
REMARK   51  A    between atoms: _129  and  _130
REMARK   52  A    between atoms: _130  and  _131
REMARK   53  A    between atoms: _140  and  _142
REMARK   54  A    between atoms: _142  and  _143
REMARK   55  A    between atoms: _142  and  _145
REMARK   56  A    between atoms: _145  and  _146
REMARK   57  A    between atoms: _149  and  _151
REMARK   58  A    between atoms: _151  and  _152
REMARK   59  A    between atoms: _151  and  _154
REMARK   60  A    between atoms: _154  and  _155
REMARK   61  A    between atoms: _160  and  _162
REMARK   62  A    between atoms: _162  and  _163
REMARK   63  A    between atoms: _162  and  _165
REMARK   64  A    between atoms: _165  and  _166
REMARK   65  A    between atoms: _166  and  _167
REMARK   66  A    between atoms: _170  and  _172
REMARK   67  A    between atoms: _172  and  _173
REMARK   68  A    between atoms: _172  and  _175
REMARK   69  A    between atoms: _175  and  _176
REMARK   70  A    between atoms: _181  and  _182
REMARK   71  A    between atoms: _184  and  _186
REMARK   72  A    between atoms: _186  and  _187
REMARK   73  A    between atoms: _186  and  _189
REMARK   74  A    between atoms: _189  and  _190
REMARK   75  A    between atoms: _190  and  _191
REMARK   76  A    between atoms: _191  and  _192
REMARK   77  A    between atoms: _192  and  _193
REMARK   78  A    between atoms: _197  and  _199
REMARK   79  A    between atoms: _199  and  _200
REMARK   80  A    between atoms: _203  and  _205
REMARK   81  A    between atoms: _205  and  _206
REMARK   82  A    between atoms: _210  and  _211
REMARK   83  A    between atoms: _216  and  _218
REMARK   84  A    between atoms: _218  and  _219
REMARK   85  A    between atoms: _221  and  _223
REMARK   86  A    between atoms: _223  and  _224
REMARK   87  A    between atoms: _223  and  _226
REMARK   88  A    between atoms: _226  and  _227
REMARK   89  A    between atoms: _232  and  _233
REMARK   90  A    between atoms: _235  and  _237
REMARK   91  A    between atoms: _237  and  _238
REMARK   92  A    between atoms: _237  and  _240
REMARK   93  A    between atoms: _240  and  _241
REMARK   94  A    between atoms: _246  and  _248
REMARK   95  A    between atoms: _248  and  _249
REMARK   96  A    between atoms: _248  and  _251
REMARK   97  A    between atoms: _251  and  _252
REMARK   98  A    between atoms: _252  and  _253
REMARK   99  A    between atoms: _255  and  _257
REMARK  100  A    between atoms: _257  and  _258
REMARK  101  A    between atoms: _261  and  _263
REMARK  102  A    between atoms: _263  and  _264
REMARK  103  A    between atoms: _263  and  _266
REMARK  104  A    between atoms: _266  and  _267
REMARK  105  A    between atoms: _267  and  _268
REMARK  106  A    between atoms: _268  and  _269
REMARK  107  A    between atoms: _269  and  _270
REMARK  108  A    between atoms: _274  and  _276
REMARK  109  A    between atoms: _276  and  _277
REMARK  110  A    between atoms: _276  and  _279
REMARK  111  A    between atoms: _279  and  _280
REMARK  112  A    between atoms: _283  and  _285
REMARK  113  A    between atoms: _285  and  _286
REMARK  114  A    between atoms: _285  and  _288
REMARK  115  A    between atoms: _288  and  _289
REMARK  116  A    between atoms: _294  and  _296
REMARK  117  A    between atoms: _296  and  _297
REMARK  118  A    between atoms: _296  and  _299
REMARK  119  A    between atoms: _299  and  _300
REMARK  120  A    between atoms: _300  and  _301
REMARK  121  A    between atoms: _301  and  _302
REMARK  122  A    between atoms: _311  and  _313
REMARK  123  A    between atoms: _313  and  _314
REMARK  124  A    between atoms: _313  and  _316
REMARK  125  A    between atoms: _316  and  _317
REMARK                            x       y       z     vdW  Elec       q    Type
REMARK                         _______ _______ _______ _____ _____    ______ ____
ROOT
ATOM      1  O   HOH     1      39.082  38.867  20.884  0.00  0.00    +0.000 OA
ENDROOT
TORSDOF 0
REMARK  Name = ../refined-set-2016/3ebp/3ebp_pocket.pdb
REMARK  125 active torsions:
REMARK  status: ('A' for Active; 'I' for Inactive)
REMARK    1  A    between atoms: _2  and  _3
REMARK    2  A    between atoms: _8  and  _10
REMARK    3  A    between atoms: _10  and  _11
REMARK    4  A    between atoms: _10  and  _13
REMARK    5  A    between atoms: _13  and  _14
REMARK    6  A    between atoms: _19  and  _21
REMARK    7  A    between atoms: _21  and  _22
REMARK    8  A    between atoms: _21  and  _24
REMARK    9  A    between atoms: _24  and  _25
REMARK   10  A    between atoms: _28  and  _30
REMARK   11  A    between atoms: _30  and  _31
REMARK   12  A    between atoms: _30  and  _33
REMARK   13  A    between atoms: _33  and  _34
REMARK   14  A    between atoms: _39  and  _41
REMARK   15  A    between atoms: _41  and  _42
REMARK   16  A    between atoms: _41  and  _44
REMARK   17  A    between atoms: _44  and  _45
REMARK   18  A    between atoms: _51  and  _53
REMARK   19  A    between atoms: _53  and  _54
REMARK   20  A    between atoms: _53  and  _56
REMARK   21  A    between atoms: _56  and  _57
REMARK   22  A    between atoms: _63  and  _65
REMARK   23  A    between atoms: _65  and  _66
REMARK   24  A    between atoms: _65  and  _68
REMARK   25  A    between atoms: _68  and  _69
REMARK   26  A    between atoms: _69  and  _70
REMARK   27  A    between atoms: _73  and  _75
REMARK   28  A    between atoms: _75  and  _76
REMARK   29  A    between atoms: _75  and  _78
REMARK   30  A    between atoms: _78  and  _79
REMARK   31  A    between atoms: _82  and  _84
REMARK   32  A    between atoms: _84  and  _85
REMARK   33  A    between atoms: _84  and  _87
REMARK   34  A    between atoms: _87  and  _88
REMARK   35  A    between atoms: _92  and  _93
REMARK   36  A    between atoms: _98  and  _100
REMARK   37  A    between atoms: _100  and  _101
REMARK   38  A    between atoms: _100  and  _103
REMARK   39  A    between atoms: _103  and  _104
REMARK   40  A    between atoms: _104  and  _105
REMARK   41  A    between atoms: _108  and  _110
REMARK   42  A    between atoms: _110  and  _111
REMARK   43  A    between atoms: _114  and  _116
REMARK   44  A    between atoms: _116  and  _117
REMARK   45  A    between atoms: _116  and  _119
REMARK   46  A    between atoms: _119  and  _120
REMARK   47  A    between atoms: _123  and  _125
REMARK   48  A    between atoms: _125  and  _126
REMARK   49  A    between atoms: _125  and  _128
REMARK   50  A    between atoms: _128  and  _129
REMARK   51  A    between atoms: _129  and  _130
REMARK   52  A    between atoms: _130  and  _131
REMARK   53  A    between atoms: _140  and  _142
REMARK   54  A    between atoms: _142  and  _143
REMARK   55  A    between atoms: _142  and  _145
REMARK   56  A    between atoms: _145  and  _146
REMARK   57  A    between atoms: _149  and  _151
REMARK   58  A    between atoms: _151  and  _152
REMARK   59  A    between atoms: _151  and  _154
REMARK   60  A    between atoms: _154  and  _155
REMARK   61  A    between atoms: _160  and  _162
REMARK   62  A    between atoms: _162  and  _163
REMARK   63  A    between atoms: _162  and  _165
REMARK   64  A    between atoms: _165  and  _166
REMARK   65  A    between atoms: _166  and  _167
REMARK   66  A    between atoms: _170  and  _172
REMARK   67  A    between atoms: _172  and  _173
REMARK   68  A    between atoms: _172  and  _175
REMARK   69  A    between atoms: _175  and  _176
REMARK   70  A    between atoms: _181  and  _182
REMARK   71  A    between atoms: _184  and  _186
REMARK   72  A    between atoms: _186  and  _187
REMARK   73  A    between atoms: _186  and  _189
REMARK   74  A    between atoms: _189  and  _190
REMARK   75  A    between atoms: _190  and  _191
REMARK   76  A    between atoms: _191  and  _192
REMARK   77  A    between atoms: _192  and  _193
REMARK   78  A    between atoms: _197  and  _199
REMARK   79  A    between atoms: _199  and  _200
REMARK   80  A    between atoms: _203  and  _205
REMARK   81  A    between atoms: _205  and  _206
REMARK   82  A    between atoms: _210  and  _211
REMARK   83  A    between atoms: _216  and  _218
REMARK   84  A    between atoms: _218  and  _219
REMARK   85  A    between atoms: _221  and  _223
REMARK   86  A    between atoms: _223  and  _224
REMARK   87  A    between atoms: _223  and  _226
REMARK   88  A    between atoms: _226  and  _227
REMARK   89  A    between atoms: _232  and  _233
REMARK   90  A    between atoms: _235  and  _237
REMARK   91  A    between atoms: _237  and  _238
REMARK   92  A    between atoms: _237  and  _240
REMARK   93  A    between atoms: _240  and  _241
REMARK   94  A    between atoms: _246  and  _248
REMARK   95  A    between atoms: _248  and  _249
REMARK   96  A    between atoms: _248  and  _251
REMARK   97  A    between atoms: _251  and  _252
REMARK   98  A    between atoms: _252  and  _253
REMARK   99  A    between atoms: _255  and  _257
REMARK  100  A    between atoms: _257  and  _258
REMARK  101  A    between atoms: _261  and  _263
REMARK  102  A    between atoms: _263  and  _264
REMARK  103  A    between atoms: _263  and  _266
REMARK  104  A    between atoms: _266  and  _267
REMARK  105  A    between atoms: _267  and  _268
REMARK  106  A    between atoms: _268  and  _269
REMARK  107  A    between atoms: _269  and  _270
REMARK  108  A    between atoms: _274  and  _276
REMARK  109  A    between atoms: _276  and  _277
REMARK  110  A    between atoms: _276  and  _279
REMARK  111  A    between atoms: _279  and  _280
REMARK  112  A    between atoms: _283  and  _285
REMARK  113  A    between atoms: _285  and  _286
REMARK  114  A    between atoms: _285  and  _288
REMARK  115  A    between atoms: _288  and  _289
REMARK  116  A    between atoms: _294  and  _296
REMARK  117  A    between atoms: _296  and  _297
REMARK  118  A    between atoms: _296  and  _299
REMARK  119  A    between atoms: _299  and  _300
REMARK  120  A    between atoms: _300  and  _301
REMARK  121  A    between atoms: _301  and  _302
REMARK  122  A    between atoms: _311  and  _313
REMARK  123  A    between atoms: _313  and  _314
REMARK  124  A    between atoms: _313  and  _316
REMARK  125  A    between atoms: _316  and  _317
REMARK                            x       y       z     vdW  Elec       q    Type
REMARK                         _______ _______ _______ _____ _____    ______ ____
ROOT
ATOM      1  O   HOH     1      36.539  25.510  24.137  0.00  0.00    +0.000 OA
ENDROOT
TORSDOF 0
REMARK  Name = ../refined-set-2016/3ebp/3ebp_pocket.pdb
REMARK  125 active torsions:
REMARK  status: ('A' for Active; 'I' for Inactive)
REMARK    1  A    between atoms: _2  and  _3
REMARK    2  A    between atoms: _8  and  _10
REMARK    3  A    between atoms: _10  and  _11
REMARK    4  A    between atoms: _10  and  _13
REMARK    5  A    between atoms: _13  and  _14
REMARK    6  A    between atoms: _19  and  _21
REMARK    7  A    between atoms: _21  and  _22
REMARK    8  A    between atoms: _21  and  _24
REMARK    9  A    between atoms: _24  and  _25
REMARK   10  A    between atoms: _28  and  _30
REMARK   11  A    between atoms: _30  and  _31
REMARK   12  A    between atoms: _30  and  _33
REMARK   13  A    between atoms: _33  and  _34
REMARK   14  A    between atoms: _39  and  _41
REMARK   15  A    between atoms: _41  and  _42
REMARK   16  A    between atoms: _41  and  _44
REMARK   17  A    between atoms: _44  and  _45
REMARK   18  A    between atoms: _51  and  _53
REMARK   19  A    between atoms: _53  and  _54
REMARK   20  A    between atoms: _53  and  _56
REMARK   21  A    between atoms: _56  and  _57
REMARK   22  A    between atoms: _63  and  _65
REMARK   23  A    between atoms: _65  and  _66
REMARK   24  A    between atoms: _65  and  _68
REMARK   25  A    between atoms: _68  and  _69
REMARK   26  A    between atoms: _69  and  _70
REMARK   27  A    between atoms: _73  and  _75
REMARK   28  A    between atoms: _75  and  _76
REMARK   29  A    between atoms: _75  and  _78
REMARK   30  A    between atoms: _78  and  _79
REMARK   31  A    between atoms: _82  and  _84
REMARK   32  A    between atoms: _84  and  _85
REMARK   33  A    between atoms: _84  and  _87
REMARK   34  A    between atoms: _87  and  _88
REMARK   35  A    between atoms: _92  and  _93
REMARK   36  A    between atoms: _98  and  _100
REMARK   37  A    between atoms: _100  and  _101
REMARK   38  A    between atoms: _100  and  _103
REMARK   39  A    between atoms: _103  and  _104
REMARK   40  A    between atoms: _104  and  _105
REMARK   41  A    between atoms: _108  and  _110
REMARK   42  A    between atoms: _110  and  _111
REMARK   43  A    between atoms: _114  and  _116
REMARK   44  A    between atoms: _116  and  _117
REMARK   45  A    between atoms: _116  and  _119
REMARK   46  A    between atoms: _119  and  _120
REMARK   47  A    between atoms: _123  and  _125
REMARK   48  A    between atoms: _125  and  _126
REMARK   49  A    between atoms: _125  and  _128
REMARK   50  A    between atoms: _128  and  _129
REMARK   51  A    between atoms: _129  and  _130
REMARK   52  A    between atoms: _130  and  _131
REMARK   53  A    between atoms: _140  and  _142
REMARK   54  A    between atoms: _142  and  _143
REMARK   55  A    between atoms: _142  and  _145
REMARK   56  A    between atoms: _145  and  _146
REMARK   57  A    between atoms: _149  and  _151
REMARK   58  A    between atoms: _151  and  _152
REMARK   59  A    between atoms: _151  and  _154
REMARK   60  A    between atoms: _154  and  _155
REMARK   61  A    between atoms: _160  and  _162
REMARK   62  A    between atoms: _162  and  _163
REMARK   63  A    between atoms: _162  and  _165
REMARK   64  A    between atoms: _165  and  _166
REMARK   65  A    between atoms: _166  and  _167
REMARK   66  A    between atoms: _170  and  _172
REMARK   67  A    between atoms: _172  and  _173
REMARK   68  A    between atoms: _172  and  _175
REMARK   69  A    between atoms: _175  and  _176
REMARK   70  A    between atoms: _181  and  _182
REMARK   71  A    between atoms: _184  and  _186
REMARK   72  A    between atoms: _186  and  _187
REMARK   73  A    between atoms: _186  and  _189
REMARK   74  A    between atoms: _189  and  _190
REMARK   75  A    between atoms: _190  and  _191
REMARK   76  A    between atoms: _191  and  _192
REMARK   77  A    between atoms: _192  and  _193
REMARK   78  A    between atoms: _197  and  _199
REMARK   79  A    between atoms: _199  and  _200
REMARK   80  A    between atoms: _203  and  _205
REMARK   81  A    between atoms: _205  and  _206
REMARK   82  A    between atoms: _210  and  _211
REMARK   83  A    between atoms: _216  and  _218
REMARK   84  A    between atoms: _218  and  _219
REMARK   85  A    between atoms: _221  and  _223
REMARK   86  A    between atoms: _223  and  _224
REMARK   87  A    between atoms: _223  and  _226
REMARK   88  A    between atoms: _226  and  _227
REMARK   89  A    between atoms: _232  and  _233
REMARK   90  A    between atoms: _235  and  _237
REMARK   91  A    between atoms: _237  and  _238
REMARK   92  A    between atoms: _237  and  _240
REMARK   93  A    between atoms: _240  and  _241
REMARK   94  A    between atoms: _246  and  _248
REMARK   95  A    between atoms: _248  and  _249
REMARK   96  A    between atoms: _248  and  _251
REMARK   97  A    between atoms: _251  and  _252
REMARK   98  A    between atoms: _252  and  _253
REMARK   99  A    between atoms: _255  and  _257
REMARK  100  A    between atoms: _257  and  _258
REMARK  101  A    between atoms: _261  and  _263
REMARK  102  A    between atoms: _263  and  _264
REMARK  103  A    between atoms: _263  and  _266
REMARK  104  A    between atoms: _266  and  _267
REMARK  105  A    between atoms: _267  and  _268
REMARK  106  A    between atoms: _268  and  _269
REMARK  107  A    between atoms: _269  and  _270
REMARK  108  A    between atoms: _274  and  _276
REMARK  109  A    between atoms: _276  and  _277
REMARK  110  A    between atoms: _276  and  _279
REMARK  111  A    between atoms: _279  and  _280
REMARK  112  A    between atoms: _283  and  _285
REMARK  113  A    between atoms: _285  and  _286
REMARK  114  A    between atoms: _285  and  _288
REMARK  115  A    between atoms: _288  and  _289
REMARK  116  A    between atoms: _294  and  _296
REMARK  117  A    between atoms: _296  and  _297
REMARK  118  A    between atoms: _296  and  _299
REMARK  119  A    between atoms: _299  and  _300
REMARK  120  A    between atoms: _300  and  _301
REMARK  121  A    between atoms: _301  and  _302
REMARK  122  A    between atoms: _311  and  _313
REMARK  123  A    between atoms: _313  and  _314
REMARK  124  A    between atoms: _313  and  _316
REMARK  125  A    between atoms: _316  and  _317
REMARK                            x       y       z     vdW  Elec       q    Type
REMARK                         _______ _______ _______ _____ _____    ______ ____
ROOT
ATOM      1  O   HOH     1      44.042  32.428  32.544  0.00  0.00    +0.000 OA
ENDROOT
TORSDOF 0
REMARK  Name = ../refined-set-2016/3ebp/3ebp_pocket.pdb
REMARK  125 active torsions:
REMARK  status: ('A' for Active; 'I' for Inactive)
REMARK    1  A    between atoms: _2  and  _3
REMARK    2  A    between atoms: _8  and  _10
REMARK    3  A    between atoms: _10  and  _11
REMARK    4  A    between atoms: _10  and  _13
REMARK    5  A    between atoms: _13  and  _14
REMARK    6  A    between atoms: _19  and  _21
REMARK    7  A    between atoms: _21  and  _22
REMARK    8  A    between atoms: _21  and  _24
REMARK    9  A    between atoms: _24  and  _25
REMARK   10  A    between atoms: _28  and  _30
REMARK   11  A    between atoms: _30  and  _31
REMARK   12  A    between atoms: _30  and  _33
REMARK   13  A    between atoms: _33  and  _34
REMARK   14  A    between atoms: _39  and  _41
REMARK   15  A    between atoms: _41  and  _42
REMARK   16  A    between atoms: _41  and  _44
REMARK   17  A    between atoms: _44  and  _45
REMARK   18  A    between atoms: _51  and  _53
REMARK   19  A    between atoms: _53  and  _54
REMARK   20  A    between atoms: _53  and  _56
REMARK   21  A    between atoms: _56  and  _57
REMARK   22  A    between atoms: _63  and  _65
REMARK   23  A    between atoms: _65  and  _66
REMARK   24  A    between atoms: _65  and  _68
REMARK   25  A    between atoms: _68  and  _69
REMARK   26  A    between atoms: _69  and  _70
REMARK   27  A    between atoms: _73  and  _75
REMARK   28  A    between atoms: _75  and  _76
REMARK   29  A    between atoms: _75  and  _78
REMARK   30  A    between atoms: _78  and  _79
REMARK   31  A    between atoms: _82  and  _84
REMARK   32  A    between atoms: _84  and  _85
REMARK   33  A    between atoms: _84  and  _87
REMARK   34  A    between atoms: _87  and  _88
REMARK   35  A    between atoms: _92  and  _93
REMARK   36  A    between atoms: _98  and  _100
REMARK   37  A    between atoms: _100  and  _101
REMARK   38  A    between atoms: _100  and  _103
REMARK   39  A    between atoms: _103  and  _104
REMARK   40  A    between atoms: _104  and  _105
REMARK   41  A    between atoms: _108  and  _110
REMARK   42  A    between atoms: _110  and  _111
REMARK   43  A    between atoms: _114  and  _116
REMARK   44  A    between atoms: _116  and  _117
REMARK   45  A    between atoms: _116  and  _119
REMARK   46  A    between atoms: _119  and  _120
REMARK   47  A    between atoms: _123  and  _125
REMARK   48  A    between atoms: _125  and  _126
REMARK   49  A    between atoms: _125  and  _128
REMARK   50  A    between atoms: _128  and  _129
REMARK   51  A    between atoms: _129  and  _130
REMARK   52  A    between atoms: _130  and  _131
REMARK   53  A    between atoms: _140  and  _142
REMARK   54  A    between atoms: _142  and  _143
REMARK   55  A    between atoms: _142  and  _145
REMARK   56  A    between atoms: _145  and  _146
REMARK   57  A    between atoms: _149  and  _151
REMARK   58  A    between atoms: _151  and  _152
REMARK   59  A    between atoms: _151  and  _154
REMARK   60  A    between atoms: _154  and  _155
REMARK   61  A    between atoms: _160  and  _162
REMARK   62  A    between atoms: _162  and  _163
REMARK   63  A    between atoms: _162  and  _165
REMARK   64  A    between atoms: _165  and  _166
REMARK   65  A    between atoms: _166  and  _167
REMARK   66  A    between atoms: _170  and  _172
REMARK   67  A    between atoms: _172  and  _173
REMARK   68  A    between atoms: _172  and  _175
REMARK   69  A    between atoms: _175  and  _176
REMARK   70  A    between atoms: _181  and  _182
REMARK   71  A    between atoms: _184  and  _186
REMARK   72  A    between atoms: _186  and  _187
REMARK   73  A    between atoms: _186  and  _189
REMARK   74  A    between atoms: _189  and  _190
REMARK   75  A    between atoms: _190  and  _191
REMARK   76  A    between atoms: _191  and  _192
REMARK   77  A    between atoms: _192  and  _193
REMARK   78  A    between atoms: _197  and  _199
REMARK   79  A    between atoms: _199  and  _200
REMARK   80  A    between atoms: _203  and  _205
REMARK   81  A    between atoms: _205  and  _206
REMARK   82  A    between atoms: _210  and  _211
REMARK   83  A    between atoms: _216  and  _218
REMARK   84  A    between atoms: _218  and  _219
REMARK   85  A    between atoms: _221  and  _223
REMARK   86  A    between atoms: _223  and  _224
REMARK   87  A    between atoms: _223  and  _226
REMARK   88  A    between atoms: _226  and  _227
REMARK   89  A    between atoms: _232  and  _233
REMARK   90  A    between atoms: _235  and  _237
REMARK   91  A    between atoms: _237  and  _238
REMARK   92  A    between atoms: _237  and  _240
REMARK   93  A    between atoms: _240  and  _241
REMARK   94  A    between atoms: _246  and  _248
REMARK   95  A    between atoms: _248  and  _249
REMARK   96  A    between atoms: _248  and  _251
REMARK   97  A    between atoms: _251  and  _252
REMARK   98  A    between atoms: _252  and  _253
REMARK   99  A    between atoms: _255  and  _257
REMARK  100  A    between atoms: _257  and  _258
REMARK  101  A    between atoms: _261  and  _263
REMARK  102  A    between atoms: _263  and  _264
REMARK  103  A    between atoms: _263  and  _266
REMARK  104  A    between atoms: _266  and  _267
REMARK  105  A    between atoms: _267  and  _268
REMARK  106  A    between atoms: _268  and  _269
REMARK  107  A    between atoms: _269  and  _270
REMARK  108  A    between atoms: _274  and  _276
REMARK  109  A    between atoms: _276  and  _277
REMARK  110  A    between atoms: _276  and  _279
REMARK  111  A    between atoms: _279  and  _280
REMARK  112  A    between atoms: _283  and  _285
REMARK  113  A    between atoms: _285  and  _286
REMARK  114  A    between atoms: _285  and  _288
REMARK  115  A    between atoms: _288  and  _289
REMARK  116  A    between atoms: _294  and  _296
REMARK  117  A    between atoms: _296  and  _297
REMARK  118  A    between atoms: _296  and  _299
REMARK  119  A    between atoms: _299  and  _300
REMARK  120  A    between atoms: _300  and  _301
REMARK  121  A    between atoms: _301  and  _302
REMARK  122  A    between atoms: _311  and  _313
REMARK  123  A    between atoms: _313  and  _314
REMARK  124  A    between atoms: _313  and  _316
REMARK  125  A    between atoms: _316  and  _317
REMARK                            x       y       z     vdW  Elec       q    Type
REMARK                         _______ _______ _______ _____ _____    ______ ____
ROOT
ATOM      1  O   HOH     1      45.220  33.773  36.580  0.00  0.00    +0.000 OA
ENDROOT
TORSDOF 0
REMARK  Name = ../refined-set-2016/3ebp/3ebp_pocket.pdb
REMARK  125 active torsions:
REMARK  status: ('A' for Active; 'I' for Inactive)
REMARK    1  A    between atoms: _2  and  _3
REMARK    2  A    between atoms: _8  and  _10
REMARK    3  A    between atoms: _10  and  _11
REMARK    4  A    between atoms: _10  and  _13
REMARK    5  A    between atoms: _13  and  _14
REMARK    6  A    between atoms: _19  and  _21
REMARK    7  A    between atoms: _21  and  _22
REMARK    8  A    between atoms: _21  and  _24
REMARK    9  A    between atoms: _24  and  _25
REMARK   10  A    between atoms: _28  and  _30
REMARK   11  A    between atoms: _30  and  _31
REMARK   12  A    between atoms: _30  and  _33
REMARK   13  A    between atoms: _33  and  _34
REMARK   14  A    between atoms: _39  and  _41
REMARK   15  A    between atoms: _41  and  _42
REMARK   16  A    between atoms: _41  and  _44
REMARK   17  A    between atoms: _44  and  _45
REMARK   18  A    between atoms: _51  and  _53
REMARK   19  A    between atoms: _53  and  _54
REMARK   20  A    between atoms: _53  and  _56
REMARK   21  A    between atoms: _56  and  _57
REMARK   22  A    between atoms: _63  and  _65
REMARK   23  A    between atoms: _65  and  _66
REMARK   24  A    between atoms: _65  and  _68
REMARK   25  A    between atoms: _68  and  _69
REMARK   26  A    between atoms: _69  and  _70
REMARK   27  A    between atoms: _73  and  _75
REMARK   28  A    between atoms: _75  and  _76
REMARK   29  A    between atoms: _75  and  _78
REMARK   30  A    between atoms: _78  and  _79
REMARK   31  A    between atoms: _82  and  _84
REMARK   32  A    between atoms: _84  and  _85
REMARK   33  A    between atoms: _84  and  _87
REMARK   34  A    between atoms: _87  and  _88
REMARK   35  A    between atoms: _92  and  _93
REMARK   36  A    between atoms: _98  and  _100
REMARK   37  A    between atoms: _100  and  _101
REMARK   38  A    between atoms: _100  and  _103
REMARK   39  A    between atoms: _103  and  _104
REMARK   40  A    between atoms: _104  and  _105
REMARK   41  A    between atoms: _108  and  _110
REMARK   42  A    between atoms: _110  and  _111
REMARK   43  A    between atoms: _114  and  _116
REMARK   44  A    between atoms: _116  and  _117
REMARK   45  A    between atoms: _116  and  _119
REMARK   46  A    between atoms: _119  and  _120
REMARK   47  A    between atoms: _123  and  _125
REMARK   48  A    between atoms: _125  and  _126
REMARK   49  A    between atoms: _125  and  _128
REMARK   50  A    between atoms: _128  and  _129
REMARK   51  A    between atoms: _129  and  _130
REMARK   52  A    between atoms: _130  and  _131
REMARK   53  A    between atoms: _140  and  _142
REMARK   54  A    between atoms: _142  and  _143
REMARK   55  A    between atoms: _142  and  _145
REMARK   56  A    between atoms: _145  and  _146
REMARK   57  A    between atoms: _149  and  _151
REMARK   58  A    between atoms: _151  and  _152
REMARK   59  A    between atoms: _151  and  _154
REMARK   60  A    between atoms: _154  and  _155
REMARK   61  A    between atoms: _160  and  _162
REMARK   62  A    between atoms: _162  and  _163
REMARK   63  A    between atoms: _162  and  _165
REMARK   64  A    between atoms: _165  and  _166
REMARK   65  A    between atoms: _166  and  _167
REMARK   66  A    between atoms: _170  and  _172
REMARK   67  A    between atoms: _172  and  _173
REMARK   68  A    between atoms: _172  and  _175
REMARK   69  A    between atoms: _175  and  _176
REMARK   70  A    between atoms: _181  and  _182
REMARK   71  A    between atoms: _184  and  _186
REMARK   72  A    between atoms: _186  and  _187
REMARK   73  A    between atoms: _186  and  _189
REMARK   74  A    between atoms: _189  and  _190
REMARK   75  A    between atoms: _190  and  _191
REMARK   76  A    between atoms: _191  and  _192
REMARK   77  A    between atoms: _192  and  _193
REMARK   78  A    between atoms: _197  and  _199
REMARK   79  A    between atoms: _199  and  _200
REMARK   80  A    between atoms: _203  and  _205
REMARK   81  A    between atoms: _205  and  _206
REMARK   82  A    between atoms: _210  and  _211
REMARK   83  A    between atoms: _216  and  _218
REMARK   84  A    between atoms: _218  and  _219
REMARK   85  A    between atoms: _221  and  _223
REMARK   86  A    between atoms: _223  and  _224
REMARK   87  A    between atoms: _223  and  _226
REMARK   88  A    between atoms: _226  and  _227
REMARK   89  A    between atoms: _232  and  _233
REMARK   90  A    between atoms: _235  and  _237
REMARK   91  A    between atoms: _237  and  _238
REMARK   92  A    between atoms: _237  and  _240
REMARK   93  A    between atoms: _240  and  _241
REMARK   94  A    between atoms: _246  and  _248
REMARK   95  A    between atoms: _248  and  _249
REMARK   96  A    between atoms: _248  and  _251
REMARK   97  A    between atoms: _251  and  _252
REMARK   98  A    between atoms: _252  and  _253
REMARK   99  A    between atoms: _255  and  _257
REMARK  100  A    between atoms: _257  and  _258
REMARK  101  A    between atoms: _261  and  _263
REMARK  102  A    between atoms: _263  and  _264
REMARK  103  A    between atoms: _263  and  _266
REMARK  104  A    between atoms: _266  and  _267
REMARK  105  A    between atoms: _267  and  _268
REMARK  106  A    between atoms: _268  and  _269
REMARK  107  A    between atoms: _269  and  _270
REMARK  108  A    between atoms: _274  and  _276
REMARK  109  A    between atoms: _276  and  _277
REMARK  110  A    between atoms: _276  and  _279
REMARK  111  A    between atoms: _279  and  _280
REMARK  112  A    between atoms: _283  and  _285
REMARK  113  A    between atoms: _285  and  _286
REMARK  114  A    between atoms: _285  and  _288
REMARK  115  A    between atoms: _288  and  _289
REMARK  116  A    between atoms: _294  and  _296
REMARK  117  A    between atoms: _296  and  _297
REMARK  118  A    between atoms: _296  and  _299
REMARK  119  A    between atoms: _299  and  _300
REMARK  120  A    between atoms: _300  and  _301
REMARK  121  A    between atoms: _301  and  _302
REMARK  122  A    between atoms: _311  and  _313
REMARK  123  A    between atoms: _313  and  _314
REMARK  124  A    between atoms: _313  and  _316
REMARK  125  A    between atoms: _316  and  _317
REMARK                            x       y       z     vdW  Elec       q    Type
REMARK                         _______ _______ _______ _____ _____    ______ ____
ROOT
ATOM      1  O   HOH     1      43.157  42.061  30.592  0.00  0.00    +0.000 OA
ENDROOT
TORSDOF 0
REMARK  Name = ../refined-set-2016/3ebp/3ebp_pocket.pdb
REMARK  125 active torsions:
REMARK  status: ('A' for Active; 'I' for Inactive)
REMARK    1  A    between atoms: _2  and  _3
REMARK    2  A    between atoms: _8  and  _10
REMARK    3  A    between atoms: _10  and  _11
REMARK    4  A    between atoms: _10  and  _13
REMARK    5  A    between atoms: _13  and  _14
REMARK    6  A    between atoms: _19  and  _21
REMARK    7  A    between atoms: _21  and  _22
REMARK    8  A    between atoms: _21  and  _24
REMARK    9  A    between atoms: _24  and  _25
REMARK   10  A    between atoms: _28  and  _30
REMARK   11  A    between atoms: _30  and  _31
REMARK   12  A    between atoms: _30  and  _33
REMARK   13  A    between atoms: _33  and  _34
REMARK   14  A    between atoms: _39  and  _41
REMARK   15  A    between atoms: _41  and  _42
REMARK   16  A    between atoms: _41  and  _44
REMARK   17  A    between atoms: _44  and  _45
REMARK   18  A    between atoms: _51  and  _53
REMARK   19  A    between atoms: _53  and  _54
REMARK   20  A    between atoms: _53  and  _56
REMARK   21  A    between atoms: _56  and  _57
REMARK   22  A    between atoms: _63  and  _65
REMARK   23  A    between atoms: _65  and  _66
REMARK   24  A    between atoms: _65  and  _68
REMARK   25  A    between atoms: _68  and  _69
REMARK   26  A    between atoms: _69  and  _70
REMARK   27  A    between atoms: _73  and  _75
REMARK   28  A    between atoms: _75  and  _76
REMARK   29  A    between atoms: _75  and  _78
REMARK   30  A    between atoms: _78  and  _79
REMARK   31  A    between atoms: _82  and  _84
REMARK   32  A    between atoms: _84  and  _85
REMARK   33  A    between atoms: _84  and  _87
REMARK   34  A    between atoms: _87  and  _88
REMARK   35  A    between atoms: _92  and  _93
REMARK   36  A    between atoms: _98  and  _100
REMARK   37  A    between atoms: _100  and  _101
REMARK   38  A    between atoms: _100  and  _103
REMARK   39  A    between atoms: _103  and  _104
REMARK   40  A    between atoms: _104  and  _105
REMARK   41  A    between atoms: _108  and  _110
REMARK   42  A    between atoms: _110  and  _111
REMARK   43  A    between atoms: _114  and  _116
REMARK   44  A    between atoms: _116  and  _117
REMARK   45  A    between atoms: _116  and  _119
REMARK   46  A    between atoms: _119  and  _120
REMARK   47  A    between atoms: _123  and  _125
REMARK   48  A    between atoms: _125  and  _126
REMARK   49  A    between atoms: _125  and  _128
REMARK   50  A    between atoms: _128  and  _129
REMARK   51  A    between atoms: _129  and  _130
REMARK   52  A    between atoms: _130  and  _131
REMARK   53  A    between atoms: _140  and  _142
REMARK   54  A    between atoms: _142  and  _143
REMARK   55  A    between atoms: _142  and  _145
REMARK   56  A    between atoms: _145  and  _146
REMARK   57  A    between atoms: _149  and  _151
REMARK   58  A    between atoms: _151  and  _152
REMARK   59  A    between atoms: _151  and  _154
REMARK   60  A    between atoms: _154  and  _155
REMARK   61  A    between atoms: _160  and  _162
REMARK   62  A    between atoms: _162  and  _163
REMARK   63  A    between atoms: _162  and  _165
REMARK   64  A    between atoms: _165  and  _166
REMARK   65  A    between atoms: _166  and  _167
REMARK   66  A    between atoms: _170  and  _172
REMARK   67  A    between atoms: _172  and  _173
REMARK   68  A    between atoms: _172  and  _175
REMARK   69  A    between atoms: _175  and  _176
REMARK   70  A    between atoms: _181  and  _182
REMARK   71  A    between atoms: _184  and  _186
REMARK   72  A    between atoms: _186  and  _187
REMARK   73  A    between atoms: _186  and  _189
REMARK   74  A    between atoms: _189  and  _190
REMARK   75  A    between atoms: _190  and  _191
REMARK   76  A    between atoms: _191  and  _192
REMARK   77  A    between atoms: _192  and  _193
REMARK   78  A    between atoms: _197  and  _199
REMARK   79  A    between atoms: _199  and  _200
REMARK   80  A    between atoms: _203  and  _205
REMARK   81  A    between atoms: _205  and  _206
REMARK   82  A    between atoms: _210  and  _211
REMARK   83  A    between atoms: _216  and  _218
REMARK   84  A    between atoms: _218  and  _219
REMARK   85  A    between atoms: _221  and  _223
REMARK   86  A    between atoms: _223  and  _224
REMARK   87  A    between atoms: _223  and  _226
REMARK   88  A    between atoms: _226  and  _227
REMARK   89  A    between atoms: _232  and  _233
REMARK   90  A    between atoms: _235  and  _237
REMARK   91  A    between atoms: _237  and  _238
REMARK   92  A    between atoms: _237  and  _240
REMARK   93  A    between atoms: _240  and  _241
REMARK   94  A    between atoms: _246  and  _248
REMARK   95  A    between atoms: _248  and  _249
REMARK   96  A    between atoms: _248  and  _251
REMARK   97  A    between atoms: _251  and  _252
REMARK   98  A    between atoms: _252  and  _253
REMARK   99  A    between atoms: _255  and  _257
REMARK  100  A    between atoms: _257  and  _258
REMARK  101  A    between atoms: _261  and  _263
REMARK  102  A    between atoms: _263  and  _264
REMARK  103  A    between atoms: _263  and  _266
REMARK  104  A    between atoms: _266  and  _267
REMARK  105  A    between atoms: _267  and  _268
REMARK  106  A    between atoms: _268  and  _269
REMARK  107  A    between atoms: _269  and  _270
REMARK  108  A    between atoms: _274  and  _276
REMARK  109  A    between atoms: _276  and  _277
REMARK  110  A    between atoms: _276  and  _279
REMARK  111  A    between atoms: _279  and  _280
REMARK  112  A    between atoms: _283  and  _285
REMARK  113  A    between atoms: _285  and  _286
REMARK  114  A    between atoms: _285  and  _288
REMARK  115  A    between atoms: _288  and  _289
REMARK  116  A    between atoms: _294  and  _296
REMARK  117  A    between atoms: _296  and  _297
REMARK  118  A    between atoms: _296  and  _299
REMARK  119  A    between atoms: _299  and  _300
REMARK  120  A    between atoms: _300  and  _301
REMARK  121  A    between atoms: _301  and  _302
REMARK  122  A    between atoms: _311  and  _313
REMARK  123  A    between atoms: _313  and  _314
REMARK  124  A    between atoms: _313  and  _316
REMARK  125  A    between atoms: _316  and  _317
REMARK                            x       y       z     vdW  Elec       q    Type
REMARK                         _______ _______ _______ _____ _____    ______ ____
ROOT
ATOM      1  O   HOH     1      37.449  41.504  28.757  0.00  0.00    +0.000 OA
ENDROOT
TORSDOF 0
REMARK  Name = ../refined-set-2016/3ebp/3ebp_pocket.pdb
REMARK  125 active torsions:
REMARK  status: ('A' for Active; 'I' for Inactive)
REMARK    1  A    between atoms: _2  and  _3
REMARK    2  A    between atoms: _8  and  _10
REMARK    3  A    between atoms: _10  and  _11
REMARK    4  A    between atoms: _10  and  _13
REMARK    5  A    between atoms: _13  and  _14
REMARK    6  A    between atoms: _19  and  _21
REMARK    7  A    between atoms: _21  and  _22
REMARK    8  A    between atoms: _21  and  _24
REMARK    9  A    between atoms: _24  and  _25
REMARK   10  A    between atoms: _28  and  _30
REMARK   11  A    between atoms: _30  and  _31
REMARK   12  A    between atoms: _30  and  _33
REMARK   13  A    between atoms: _33  and  _34
REMARK   14  A    between atoms: _39  and  _41
REMARK   15  A    between atoms: _41  and  _42
REMARK   16  A    between atoms: _41  and  _44
REMARK   17  A    between atoms: _44  and  _45
REMARK   18  A    between atoms: _51  and  _53
REMARK   19  A    between atoms: _53  and  _54
REMARK   20  A    between atoms: _53  and  _56
REMARK   21  A    between atoms: _56  and  _57
REMARK   22  A    between atoms: _63  and  _65
REMARK   23  A    between atoms: _65  and  _66
REMARK   24  A    between atoms: _65  and  _68
REMARK   25  A    between atoms: _68  and  _69
REMARK   26  A    between atoms: _69  and  _70
REMARK   27  A    between atoms: _73  and  _75
REMARK   28  A    between atoms: _75  and  _76
REMARK   29  A    between atoms: _75  and  _78
REMARK   30  A    between atoms: _78  and  _79
REMARK   31  A    between atoms: _82  and  _84
REMARK   32  A    between atoms: _84  and  _85
REMARK   33  A    between atoms: _84  and  _87
REMARK   34  A    between atoms: _87  and  _88
REMARK   35  A    between atoms: _92  and  _93
REMARK   36  A    between atoms: _98  and  _100
REMARK   37  A    between atoms: _100  and  _101
REMARK   38  A    between atoms: _100  and  _103
REMARK   39  A    between atoms: _103  and  _104
REMARK   40  A    between atoms: _104  and  _105
REMARK   41  A    between atoms: _108  and  _110
REMARK   42  A    between atoms: _110  and  _111
REMARK   43  A    between atoms: _114  and  _116
REMARK   44  A    between atoms: _116  and  _117
REMARK   45  A    between atoms: _116  and  _119
REMARK   46  A    between atoms: _119  and  _120
REMARK   47  A    between atoms: _123  and  _125
REMARK   48  A    between atoms: _125  and  _126
REMARK   49  A    between atoms: _125  and  _128
REMARK   50  A    between atoms: _128  and  _129
REMARK   51  A    between atoms: _129  and  _130
REMARK   52  A    between atoms: _130  and  _131
REMARK   53  A    between atoms: _140  and  _142
REMARK   54  A    between atoms: _142  and  _143
REMARK   55  A    between atoms: _142  and  _145
REMARK   56  A    between atoms: _145  and  _146
REMARK   57  A    between atoms: _149  and  _151
REMARK   58  A    between atoms: _151  and  _152
REMARK   59  A    between atoms: _151  and  _154
REMARK   60  A    between atoms: _154  and  _155
REMARK   61  A    between atoms: _160  and  _162
REMARK   62  A    between atoms: _162  and  _163
REMARK   63  A    between atoms: _162  and  _165
REMARK   64  A    between atoms: _165  and  _166
REMARK   65  A    between atoms: _166  and  _167
REMARK   66  A    between atoms: _170  and  _172
REMARK   67  A    between atoms: _172  and  _173
REMARK   68  A    between atoms: _172  and  _175
REMARK   69  A    between atoms: _175  and  _176
REMARK   70  A    between atoms: _181  and  _182
REMARK   71  A    between atoms: _184  and  _186
REMARK   72  A    between atoms: _186  and  _187
REMARK   73  A    between atoms: _186  and  _189
REMARK   74  A    between atoms: _189  and  _190
REMARK   75  A    between atoms: _190  and  _191
REMARK   76  A    between atoms: _191  and  _192
REMARK   77  A    between atoms: _192  and  _193
REMARK   78  A    between atoms: _197  and  _199
REMARK   79  A    between atoms: _199  and  _200
REMARK   80  A    between atoms: _203  and  _205
REMARK   81  A    between atoms: _205  and  _206
REMARK   82  A    between atoms: _210  and  _211
REMARK   83  A    between atoms: _216  and  _218
REMARK   84  A    between atoms: _218  and  _219
REMARK   85  A    between atoms: _221  and  _223
REMARK   86  A    between atoms: _223  and  _224
REMARK   87  A    between atoms: _223  and  _226
REMARK   88  A    between atoms: _226  and  _227
REMARK   89  A    between atoms: _232  and  _233
REMARK   90  A    between atoms: _235  and  _237
REMARK   91  A    between atoms: _237  and  _238
REMARK   92  A    between atoms: _237  and  _240
REMARK   93  A    between atoms: _240  and  _241
REMARK   94  A    between atoms: _246  and  _248
REMARK   95  A    between atoms: _248  and  _249
REMARK   96  A    between atoms: _248  and  _251
REMARK   97  A    between atoms: _251  and  _252
REMARK   98  A    between atoms: _252  and  _253
REMARK   99  A    between atoms: _255  and  _257
REMARK  100  A    between atoms: _257  and  _258
REMARK  101  A    between atoms: _261  and  _263
REMARK  102  A    between atoms: _263  and  _264
REMARK  103  A    between atoms: _263  and  _266
REMARK  104  A    between atoms: _266  and  _267
REMARK  105  A    between atoms: _267  and  _268
REMARK  106  A    between atoms: _268  and  _269
REMARK  107  A    between atoms: _269  and  _270
REMARK  108  A    between atoms: _274  and  _276
REMARK  109  A    between atoms: _276  and  _277
REMARK  110  A    between atoms: _276  and  _279
REMARK  111  A    between atoms: _279  and  _280
REMARK  112  A    between atoms: _283  and  _285
REMARK  113  A    between atoms: _285  and  _286
REMARK  114  A    between atoms: _285  and  _288
REMARK  115  A    between atoms: _288  and  _289
REMARK  116  A    between atoms: _294  and  _296
REMARK  117  A    between atoms: _296  and  _297
REMARK  118  A    between atoms: _296  and  _299
REMARK  119  A    between atoms: _299  and  _300
REMARK  120  A    between atoms: _300  and  _301
REMARK  121  A    between atoms: _301  and  _302
REMARK  122  A    between atoms: _311  and  _313
REMARK  123  A    between atoms: _313  and  _314
REMARK  124  A    between atoms: _313  and  _316
REMARK  125  A    between atoms: _316  and  _317
REMARK                            x       y       z     vdW  Elec       q    Type
REMARK                         _______ _______ _______ _____ _____    ______ ____
ROOT
ATOM      1  O   HOH     1      34.724  39.814  40.549  0.00  0.00    +0.000 OA
ENDROOT
TORSDOF 0
