REMARK  Name = ../refined-set-2016/3d0e/3d0e_pocket.pdb
REMARK  258 active torsions:
REMARK  status: ('A' for Active; 'I' for Inactive)
REMARK    1  A    between atoms: _1  and  _3
REMARK    2  A    between atoms: _3  and  _4
REMARK    3  A    between atoms: _3  and  _6
REMARK    4  A    between atoms: _6  and  _7
REMARK    5  A    between atoms: _10  and  _12
REMARK    6  A    between atoms: _12  and  _13
REMARK    7  A    between atoms: _12  and  _15
REMARK    8  A    between atoms: _15  and  _16
REMARK    9  A    between atoms: _19  and  _21
REMARK   10  A    between atoms: _21  and  _22
REMARK   11  A    between atoms: _24  and  _26
REMARK   12  A    between atoms: _26  and  _27
REMARK   13  A    between atoms: _26  and  _29
REMARK   14  A    between atoms: _29  and  _30
REMARK   15  A    between atoms: _30  and  _31
REMARK   16  A    between atoms: _31  and  _32
REMARK   17  A    between atoms: _32  and  _33
REMARK   18  A    between atoms: _37  and  _39
REMARK   19  A    between atoms: _39  and  _40
REMARK   20  A    between atoms: _42  and  _44
REMARK   21  A    between atoms: _44  and  _45
REMARK   22  A    between atoms: _44  and  _47
REMARK   23  A    between atoms: _47  and  _48
REMARK   24  A    between atoms: _51  and  _53
REMARK   25  A    between atoms: _53  and  _54
REMARK   26  A    between atoms: _53  and  _56
REMARK   27  A    between atoms: _56  and  _57
REMARK   28  A    between atoms: _63  and  _65
REMARK   29  A    between atoms: _65  and  _66
REMARK   30  A    between atoms: _68  and  _70
REMARK   31  A    between atoms: _70  and  _71
REMARK   32  A    between atoms: _70  and  _73
REMARK   33  A    between atoms: _73  and  _74
REMARK   34  A    between atoms: _74  and  _75
REMARK   35  A    between atoms: _75  and  _76
REMARK   36  A    between atoms: _76  and  _77
REMARK   37  A    between atoms: _81  and  _83
REMARK   38  A    between atoms: _83  and  _84
REMARK   39  A    between atoms: _83  and  _86
REMARK   40  A    between atoms: _89  and  _91
REMARK   41  A    between atoms: _91  and  _92
REMARK   42  A    between atoms: _91  and  _94
REMARK   43  A    between atoms: _94  and  _95
REMARK   44  A    between atoms: _98  and  _100
REMARK   45  A    between atoms: _100  and  _101
REMARK   46  A    between atoms: _100  and  _103
REMARK   47  A    between atoms: _103  and  _104
REMARK   48  A    between atoms: _107  and  _109
REMARK   49  A    between atoms: _109  and  _110
REMARK   50  A    between atoms: _109  and  _112
REMARK   51  A    between atoms: _112  and  _113
REMARK   52  A    between atoms: _118  and  _119
REMARK   53  A    between atoms: _121  and  _123
REMARK   54  A    between atoms: _123  and  _124
REMARK   55  A    between atoms: _127  and  _129
REMARK   56  A    between atoms: _129  and  _130
REMARK   57  A    between atoms: _129  and  _132
REMARK   58  A    between atoms: _132  and  _133
REMARK   59  A    between atoms: _133  and  _134
REMARK   60  A    between atoms: _136  and  _138
REMARK   61  A    between atoms: _138  and  _139
REMARK   62  A    between atoms: _138  and  _141
REMARK   63  A    between atoms: _141  and  _142
REMARK   64  A    between atoms: _142  and  _143
REMARK   65  A    between atoms: _143  and  _144
REMARK   66  A    between atoms: _144  and  _145
REMARK   67  A    between atoms: _149  and  _151
REMARK   68  A    between atoms: _151  and  _152
REMARK   69  A    between atoms: _151  and  _154
REMARK   70  A    between atoms: _154  and  _155
REMARK   71  A    between atoms: _158  and  _160
REMARK   72  A    between atoms: _160  and  _161
REMARK   73  A    between atoms: _160  and  _163
REMARK   74  A    between atoms: _163  and  _164
REMARK   75  A    between atoms: _167  and  _169
REMARK   76  A    between atoms: _169  and  _170
REMARK   77  A    between atoms: _169  and  _172
REMARK   78  A    between atoms: _172  and  _173
REMARK   79  A    between atoms: _173  and  _174
REMARK   80  A    between atoms: _177  and  _179
REMARK   81  A    between atoms: _179  and  _180
REMARK   82  A    between atoms: _179  and  _182
REMARK   83  A    between atoms: _182  and  _183
REMARK   84  A    between atoms: _185  and  _187
REMARK   85  A    between atoms: _187  and  _188
REMARK   86  A    between atoms: _187  and  _190
REMARK   87  A    between atoms: _190  and  _191
REMARK   88  A    between atoms: _194  and  _196
REMARK   89  A    between atoms: _196  and  _197
REMARK   90  A    between atoms: _196  and  _199
REMARK   91  A    between atoms: _199  and  _200
REMARK   92  A    between atoms: _203  and  _205
REMARK   93  A    between atoms: _205  and  _206
REMARK   94  A    between atoms: _205  and  _208
REMARK   95  A    between atoms: _208  and  _209
REMARK   96  A    between atoms: _212  and  _214
REMARK   97  A    between atoms: _214  and  _215
REMARK   98  A    between atoms: _218  and  _220
REMARK   99  A    between atoms: _220  and  _221
REMARK  100  A    between atoms: _220  and  _223
REMARK  101  A    between atoms: _223  and  _224
REMARK  102  A    between atoms: _227  and  _229
REMARK  103  A    between atoms: _229  and  _230
REMARK  104  A    between atoms: _229  and  _232
REMARK  105  A    between atoms: _232  and  _233
REMARK  106  A    between atoms: _233  and  _234
REMARK  107  A    between atoms: _234  and  _235
REMARK  108  A    between atoms: _235  and  _236
REMARK  109  A    between atoms: _240  and  _242
REMARK  110  A    between atoms: _242  and  _243
REMARK  111  A    between atoms: _242  and  _245
REMARK  112  A    between atoms: _245  and  _246
REMARK  113  A    between atoms: _251  and  _252
REMARK  114  A    between atoms: _254  and  _256
REMARK  115  A    between atoms: _256  and  _257
REMARK  116  A    between atoms: _260  and  _262
REMARK  117  A    between atoms: _262  and  _263
REMARK  118  A    between atoms: _262  and  _265
REMARK  119  A    between atoms: _267  and  _269
REMARK  120  A    between atoms: _269  and  _270
REMARK  121  A    between atoms: _269  and  _272
REMARK  122  A    between atoms: _272  and  _273
REMARK  123  A    between atoms: _279  and  _281
REMARK  124  A    between atoms: _281  and  _282
REMARK  125  A    between atoms: _281  and  _284
REMARK  126  A    between atoms: _287  and  _289
REMARK  127  A    between atoms: _289  and  _290
REMARK  128  A    between atoms: _289  and  _292
REMARK  129  A    between atoms: _292  and  _293
REMARK  130  A    between atoms: _293  and  _294
REMARK  131  A    between atoms: _296  and  _298
REMARK  132  A    between atoms: _298  and  _299
REMARK  133  A    between atoms: _298  and  _301
REMARK  134  A    between atoms: _301  and  _302
REMARK  135  A    between atoms: _302  and  _303
REMARK  136  A    between atoms: _306  and  _308
REMARK  137  A    between atoms: _308  and  _309
REMARK  138  A    between atoms: _308  and  _311
REMARK  139  A    between atoms: _311  and  _312
REMARK  140  A    between atoms: _317  and  _318
REMARK  141  A    between atoms: _320  and  _322
REMARK  142  A    between atoms: _322  and  _323
REMARK  143  A    between atoms: _326  and  _328
REMARK  144  A    between atoms: _328  and  _329
REMARK  145  A    between atoms: _328  and  _331
REMARK  146  A    between atoms: _331  and  _332
REMARK  147  A    between atoms: _337  and  _339
REMARK  148  A    between atoms: _339  and  _340
REMARK  149  A    between atoms: _342  and  _344
REMARK  150  A    between atoms: _344  and  _345
REMARK  151  A    between atoms: _347  and  _349
REMARK  152  A    between atoms: _349  and  _350
REMARK  153  A    between atoms: _349  and  _352
REMARK  154  A    between atoms: _352  and  _353
REMARK  155  A    between atoms: _353  and  _354
REMARK  156  A    between atoms: _357  and  _359
REMARK  157  A    between atoms: _359  and  _360
REMARK  158  A    between atoms: _359  and  _362
REMARK  159  A    between atoms: _362  and  _363
REMARK  160  A    between atoms: _369  and  _371
REMARK  161  A    between atoms: _371  and  _372
REMARK  162  A    between atoms: _371  and  _374
REMARK  163  A    between atoms: _374  and  _375
REMARK  164  A    between atoms: _381  and  _383
REMARK  165  A    between atoms: _383  and  _384
REMARK  166  A    between atoms: _383  and  _386
REMARK  167  A    between atoms: _386  and  _387
REMARK  168  A    between atoms: _392  and  _393
REMARK  169  A    between atoms: _395  and  _397
REMARK  170  A    between atoms: _397  and  _398
REMARK  171  A    between atoms: _397  and  _400
REMARK  172  A    between atoms: _400  and  _401
REMARK  173  A    between atoms: _404  and  _406
REMARK  174  A    between atoms: _406  and  _407
REMARK  175  A    between atoms: _406  and  _409
REMARK  176  A    between atoms: _409  and  _410
REMARK  177  A    between atoms: _410  and  _411
REMARK  178  A    between atoms: _411  and  _412
REMARK  179  A    between atoms: _412  and  _413
REMARK  180  A    between atoms: _417  and  _419
REMARK  181  A    between atoms: _419  and  _420
REMARK  182  A    between atoms: _419  and  _422
REMARK  183  A    between atoms: _422  and  _423
REMARK  184  A    between atoms: _426  and  _428
REMARK  185  A    between atoms: _428  and  _429
REMARK  186  A    between atoms: _428  and  _431
REMARK  187  A    between atoms: _431  and  _432
REMARK  188  A    between atoms: _432  and  _433
REMARK  189  A    between atoms: _436  and  _438
REMARK  190  A    between atoms: _438  and  _439
REMARK  191  A    between atoms: _438  and  _441
REMARK  192  A    between atoms: _441  and  _442
REMARK  193  A    between atoms: _447  and  _449
REMARK  194  A    between atoms: _449  and  _450
REMARK  195  A    between atoms: _449  and  _452
REMARK  196  A    between atoms: _452  and  _453
REMARK  197  A    between atoms: _456  and  _458
REMARK  198  A    between atoms: _458  and  _459
REMARK  199  A    between atoms: _458  and  _461
REMARK  200  A    between atoms: _461  and  _462
REMARK  201  A    between atoms: _462  and  _463
REMARK  202  A    between atoms: _465  and  _467
REMARK  203  A    between atoms: _467  and  _468
REMARK  204  A    between atoms: _467  and  _470
REMARK  205  A    between atoms: _470  and  _471
REMARK  206  A    between atoms: _474  and  _476
REMARK  207  A    between atoms: _476  and  _477
REMARK  208  A    between atoms: _476  and  _479
REMARK  209  A    between atoms: _479  and  _480
REMARK  210  A    between atoms: _480  and  _481
REMARK  211  A    between atoms: _481  and  _482
REMARK  212  A    between atoms: _482  and  _483
REMARK  213  A    between atoms: _487  and  _489
REMARK  214  A    between atoms: _489  and  _490
REMARK  215  A    between atoms: _489  and  _492
REMARK  216  A    between atoms: _492  and  _493
REMARK  217  A    between atoms: _496  and  _498
REMARK  218  A    between atoms: _498  and  _499
REMARK  219  A    between atoms: _498  and  _501
REMARK  220  A    between atoms: _501  and  _502
REMARK  221  A    between atoms: _505  and  _507
REMARK  222  A    between atoms: _507  and  _508
REMARK  223  A    between atoms: _507  and  _510
REMARK  224  A    between atoms: _510  and  _511
REMARK  225  A    between atoms: _514  and  _516
REMARK  226  A    between atoms: _516  and  _517
REMARK  227  A    between atoms: _516  and  _519
REMARK  228  A    between atoms: _519  and  _520
REMARK  229  A    between atoms: _526  and  _528
REMARK  230  A    between atoms: _528  and  _529
REMARK  231  A    between atoms: _531  and  _533
REMARK  232  A    between atoms: _533  and  _534
REMARK  233  A    between atoms: _533  and  _536
REMARK  234  A    between atoms: _536  and  _537
REMARK  235  A    between atoms: _540  and  _542
REMARK  236  A    between atoms: _542  and  _543
REMARK  237  A    between atoms: _542  and  _545
REMARK  238  A    between atoms: _547  and  _549
REMARK  239  A    between atoms: _549  and  _550
REMARK  240  A    between atoms: _549  and  _552
REMARK  241  A    between atoms: _552  and  _553
REMARK  242  A    between atoms: _559  and  _561
REMARK  243  A    between atoms: _561  and  _562
REMARK  244  A    between atoms: _561  and  _564
REMARK  245  A    between atoms: _564  and  _565
REMARK  246  A    between atoms: _568  and  _570
REMARK  247  A    between atoms: _570  and  _571
REMARK  248  A    between atoms: _570  and  _573
REMARK  249  A    between atoms: _573  and  _574
REMARK  250  A    between atoms: _574  and  _575
REMARK  251  A    between atoms: _578  and  _580
REMARK  252  A    between atoms: _580  and  _581
REMARK  253  A    between atoms: _580  and  _583
REMARK  254  A    between atoms: _583  and  _584
REMARK  255  A    between atoms: _590  and  _592
REMARK  256  A    between atoms: _592  and  _593
REMARK  257  A    between atoms: _592  and  _595
REMARK  258  A    between atoms: _595  and  _596
REMARK                            x       y       z     vdW  Elec       q    Type
REMARK                         _______ _______ _______ _____ _____    ______ ____
ROOT
ATOM      1  CA  PHE A   7      27.907 -27.196   4.533  0.00  0.00    +0.153 C 
ENDROOT
BRANCH   1   2
ATOM      2  C   PHE A   7      29.099 -26.432   5.113  0.00  0.00    +0.241 C 
ATOM      3  N   GLY A   8      29.089 -26.247   6.430  0.00  0.00    -0.295 N 
ATOM      4  H   GLY A   8      28.375 -26.746   6.999  0.00  0.00    +0.150 HD
ATOM      5  O   PHE A   7      30.005 -26.026   4.383  0.00  0.00    -0.273 OA
BRANCH   3   6
ATOM      6  CA  GLY A   8      30.040 -25.372   7.110  0.00  0.00    +0.176 C 
BRANCH   6   7
ATOM      7  C   GLY A   8      29.451 -24.894   8.424  0.00  0.00    +0.243 C 
ATOM      8  O   GLY A   8      28.671 -25.613   9.061  0.00  0.00    -0.273 OA
ATOM      9  N   LYS A   9      29.815 -23.680   8.829  0.00  0.00    -0.297 N 
ATOM     10  H   LYS A   9      30.435 -23.107   8.222  0.00  0.00    +0.150 HD
BRANCH   9  11
ATOM     11  CA  LYS A   9      29.364 -23.134  10.105  0.00  0.00    +0.149 C 
BRANCH  11  12
ATOM     12  C   LYS A   9      29.118 -21.635  10.049  0.00  0.00    +0.241 C 
ATOM     13  N   VAL A  10      28.273 -21.165  10.961  0.00  0.00    -0.297 N 
ATOM     14  H   VAL A  10      27.820 -21.838  11.612  0.00  0.00    +0.150 HD
ATOM     15  O   LYS A   9      29.670 -20.932   9.202  0.00  0.00    -0.273 OA
BRANCH  13  16
ATOM     16  CA  VAL A  10      27.954 -19.752  11.090  0.00  0.00    +0.149 C 
BRANCH  16  17
ATOM     17  C   VAL A  10      28.317 -19.342  12.511  0.00  0.00    +0.241 C 
ATOM     18  O   VAL A  10      27.916 -20.008  13.463  0.00  0.00    -0.273 OA
ATOM     19  N   ILE A  11      29.089 -18.262  12.643  0.00  0.00    -0.297 N 
ATOM     20  H   ILE A  11      29.357 -17.733  11.789  0.00  0.00    +0.150 HD
BRANCH  19  21
ATOM     21  CA  ILE A  11      29.575 -17.790  13.946  0.00  0.00    +0.149 C 
BRANCH  21  22
ATOM     22  C   ILE A  11      29.195 -16.325  14.177  0.00  0.00    +0.241 C 
ATOM     23  N   LEU A  12      28.820 -16.002  15.415  0.00  0.00    -0.298 N 
ATOM     24  H   LEU A  12      28.668 -16.764  16.106  0.00  0.00    +0.150 HD
ATOM     25  O   ILE A  11      29.238 -15.513  13.249  0.00  0.00    -0.273 OA
BRANCH  23  26
ATOM     26  CA  LEU A  12      28.614 -14.618  15.839  0.00  0.00    +0.137 C 
BRANCH  26  27
ATOM     27  C   LEU A  12      29.989 -13.999  16.041  0.00  0.00    +0.227 C 
ATOM     28  O   LEU A  12      30.756 -14.464  16.889  0.00  0.00    -0.286 OA
ENDBRANCH  26  27
BRANCH  26  29
ATOM     29  CB  LEU A  12      27.813 -14.560  17.150  0.00  0.00    +0.028 C 
BRANCH  29  30
ATOM     30  CG  LEU A  12      27.573 -13.188  17.798  0.00  0.00    +0.002 C 
ATOM     31  CD2 LEU A  12      26.953 -13.328  19.195  0.00  0.00    +0.000 C 
ATOM     32  CD1 LEU A  12      26.701 -12.307  16.914  0.00  0.00    +0.000 C 
ENDBRANCH  29  30
ENDBRANCH  26  29
ENDBRANCH  23  26
ENDBRANCH  21  22
BRANCH  21  33
ATOM     33  CB  ILE A  11      31.119 -17.917  14.053  0.00  0.00    +0.027 C 
ATOM     34  CG2 ILE A  11      31.629 -17.362  15.388  0.00  0.00    +0.002 C 
BRANCH  33  35
ATOM     35  CG1 ILE A  11      31.565 -19.376  13.906  0.00  0.00    +0.002 C 
ATOM     36  CD1 ILE A  11      33.078 -19.526  13.748  0.00  0.00    +0.000 C 
ENDBRANCH  33  35
ENDBRANCH  21  33
ENDBRANCH  19  21
ENDBRANCH  16  17
BRANCH  16  37
ATOM     37  CB  VAL A  10      26.455 -19.483  10.808  0.00  0.00    +0.027 C 
ATOM     38  CG2 VAL A  10      26.129 -18.003  10.962  0.00  0.00    +0.002 C 
ATOM     39  CG1 VAL A  10      26.083 -19.971   9.415  0.00  0.00    +0.002 C 
ENDBRANCH  16  37
ENDBRANCH  13  16
ENDBRANCH  11  12
BRANCH  11  40
ATOM     40  CB  LYS A   9      30.366 -23.462  11.217  0.00  0.00    +0.029 C 
BRANCH  40  41
ATOM     41  CG  LYS A   9      31.782 -22.933  11.020  0.00  0.00    +0.000 C 
BRANCH  41  42
ATOM     42  CD  LYS A   9      32.696 -23.478  12.105  0.00  0.00    -0.024 C 
BRANCH  42  43
ATOM     43  CE  LYS A   9      34.116 -22.957  11.995  0.00  0.00    -0.086 C 
BRANCH  43  44
ATOM     44  NZ  LYS A   9      34.985 -23.524  13.077  0.00  0.00    +0.380 N 
ATOM     45  HZ1 LYS A   9      34.602 -23.253  14.005  0.00  0.00    -0.089 HD
ATOM     46  HZ2 LYS A   9      35.004 -24.561  12.997  0.00  0.00    -0.089 HD
ATOM     47  HZ3 LYS A   9      35.950 -23.150  12.976  0.00  0.00    -0.089 HD
ENDBRANCH  43  44
ENDBRANCH  42  43
ENDBRANCH  41  42
ENDBRANCH  40  41
ENDBRANCH  11  40
ENDBRANCH   9  11
ENDBRANCH   6   7
ENDBRANCH   3   6
ENDBRANCH   1   2
BRANCH   1  49
ATOM     48  C   THR A   6      28.381 -29.362   5.622  0.00  0.00    +0.243 C 
ATOM     49  N   PHE A   7      27.536 -28.371   5.327  0.00  0.00    -0.297 N 
ATOM     50  H   PHE A   7      26.560 -28.436   5.680  0.00  0.00    +0.150 HD
ATOM     51  O   THR A   6      29.525 -29.444   5.170  0.00  0.00    -0.273 OA
BRANCH  48  52
ATOM     52  CA  THR A   6      27.846 -30.425   6.586  0.00  0.00    +0.176 C 
BRANCH  52  55
ATOM     53  C   GLY A   5      27.177 -28.908   8.374  0.00  0.00    +0.243 C 
ATOM     54  O   GLY A   5      28.327 -28.494   8.520  0.00  0.00    -0.273 OA
ATOM     55  N   THR A   6      26.848 -29.835   7.478  0.00  0.00    -0.295 N 
ATOM     56  H   THR A   6      25.858 -30.147   7.410  0.00  0.00    +0.150 HD
BRANCH  53  57
ATOM     57  CA  GLY A   5      26.047 -28.365   9.225  0.00  0.00    +0.176 C 
BRANCH  57  60
ATOM     58  C   LYS A   4      25.939 -26.920  11.193  0.00  0.00    +0.241 C 
ATOM     59  O   LYS A   4      24.907 -27.442  11.604  0.00  0.00    -0.273 OA
ATOM     60  N   GLY A   5      26.518 -27.254  10.045  0.00  0.00    -0.295 N 
ATOM     61  H   GLY A   5      27.337 -26.703   9.719  0.00  0.00    +0.150 HD
BRANCH  58  62
ATOM     62  CA  LYS A   4      26.630 -25.822  11.992  0.00  0.00    +0.149 C 
BRANCH  62  64
ATOM     63  C   GLY A   3      25.841 -23.685  12.889  0.00  0.00    +0.243 C 
ATOM     64  N   LYS A   4      25.647 -24.984  12.674  0.00  0.00    -0.297 N 
ATOM     65  H   LYS A   4      24.762 -25.419  13.004  0.00  0.00    +0.150 HD
ATOM     66  O   GLY A   3      26.842 -23.077  12.514  0.00  0.00    -0.273 OA
BRANCH  63  67
ATOM     67  CA  GLY A   3      24.739 -22.964  13.637  0.00  0.00    +0.176 C 
BRANCH  67  70
ATOM     68  C   LEU A   2      24.496 -21.132  15.231  0.00  0.00    +0.241 C 
ATOM     69  O   LEU A   2      23.337 -21.449  15.502  0.00  0.00    -0.273 OA
ATOM     70  N   GLY A   3      25.246 -21.800  14.360  0.00  0.00    -0.295 N 
ATOM     71  H   GLY A   3      26.222 -21.485  14.188  0.00  0.00    +0.150 HD
BRANCH  68  72
ATOM     72  CA  LEU A   2      25.143 -19.922  15.893  0.00  0.00    +0.149 C 
BRANCH  72  75
ATOM     73  C   LEU A   1      27.092 -20.626  17.200  0.00  0.00    +0.238 C 
ATOM     74  O   LEU A   1      26.404 -20.952  18.166  0.00  0.00    -0.274 OA
ATOM     75  N   LEU A   2      26.580 -20.132  16.076  0.00  0.00    -0.297 N 
ATOM     76  H   LEU A   2      27.225 -19.886  15.298  0.00  0.00    +0.150 HD
BRANCH  73  77
ATOM     77  CA  LEU A   1      28.612 -20.754  17.252  0.00  0.00    +0.145 C 
BRANCH  77  78
ATOM     78  N   LEU A   1      29.102 -19.963  18.375  0.00  0.00    -0.238 NA
ATOM     79  H   LEU A   1      29.377 -20.448  19.253  0.00  0.00    +0.142 HD
ENDBRANCH  77  78
BRANCH  77  80
ATOM     80  CB  LEU A   1      29.022 -22.222  17.402  0.00  0.00    +0.026 C 
BRANCH  80  81
ATOM     81  CG  LEU A   1      28.662 -23.195  16.269  0.00  0.00    +0.002 C 
ATOM     82  CD2 LEU A   1      28.741 -24.634  16.754  0.00  0.00    +0.000 C 
ATOM     83  CD1 LEU A   1      29.572 -22.991  15.055  0.00  0.00    +0.000 C 
ENDBRANCH  80  81
ENDBRANCH  77  80
ENDBRANCH  73  77
ENDBRANCH  72  75
BRANCH  72  84
ATOM     84  CB  LEU A   2      24.884 -18.665  15.052  0.00  0.00    +0.029 C 
BRANCH  84  85
ATOM     85  CG  LEU A   2      25.337 -17.341  15.672  0.00  0.00    +0.002 C 
ATOM     86  CD2 LEU A   2      24.525 -17.021  16.918  0.00  0.00    +0.000 C 
ATOM     87  CD1 LEU A   2      25.255 -16.198  14.667  0.00  0.00    +0.000 C 
ENDBRANCH  84  85
ENDBRANCH  72  84
ENDBRANCH  68  72
ENDBRANCH  67  70
ENDBRANCH  63  67
ENDBRANCH  62  64
BRANCH  62  88
ATOM     88  CB  LYS A   4      27.599 -26.453  13.000  0.00  0.00    +0.029 C 
BRANCH  88  89
ATOM     89  CG  LYS A   4      28.845 -27.057  12.352  0.00  0.00    +0.000 C 
BRANCH  89  90
ATOM     90  CD  LYS A   4      29.766 -27.744  13.351  0.00  0.00    -0.024 C 
BRANCH  90  91
ATOM     91  CE  LYS A   4      31.057 -28.203  12.657  0.00  0.00    -0.086 C 
BRANCH  91  92
ATOM     92  NZ  LYS A   4      31.954 -29.033  13.524  0.00  0.00    +0.380 N 
ATOM     93  HZ1 LYS A   4      32.234 -28.481  14.360  0.00  0.00    -0.089 HD
ATOM     94  HZ2 LYS A   4      31.447 -29.889  13.826  0.00  0.00    -0.089 HD
ATOM     95  HZ3 LYS A   4      32.802 -29.303  12.985  0.00  0.00    -0.089 HD
ENDBRANCH  91  92
ENDBRANCH  90  91
ENDBRANCH  89  90
ENDBRANCH  88  89
ENDBRANCH  62  88
ENDBRANCH  58  62
ENDBRANCH  57  60
ENDBRANCH  53  57
ENDBRANCH  52  55
BRANCH  52  96
ATOM     96  CB  THR A   6      27.264 -31.625   5.799  0.00  0.00    +0.137 C 
ATOM     97  CG2 THR A   6      28.375 -32.406   5.103  0.00  0.00    +0.034 C 
BRANCH  96  98
ATOM     98  OG1 THR A   6      26.568 -32.500   6.700  0.00  0.00    -0.382 OA
ATOM     99  HG1 THR A   6      26.197 -33.266   6.194  0.00  0.00    +0.210 HD
ENDBRANCH  96  98
ENDBRANCH  52  96
ENDBRANCH  48  52
ENDBRANCH   1  49
BRANCH   1 100
ATOM    100  CB  PHE A   7      26.696 -26.243   4.391  0.00  0.00    +0.055 C 
BRANCH 100 101
ATOM    101  CG  PHE A   7      26.344 -25.472   5.657  0.00  0.00    -0.020 A 
ATOM    102  CD2 PHE A   7      25.525 -26.033   6.632  0.00  0.00    -0.004 A 
ATOM    103  CE2 PHE A   7      25.198 -25.322   7.793  0.00  0.00    -0.000 A 
ATOM    104  CZ  PHE A   7      25.693 -24.035   7.988  0.00  0.00    -0.000 A 
ATOM    105  CE1 PHE A   7      26.503 -23.461   7.019  0.00  0.00    -0.000 A 
ATOM    106  CD1 PHE A   7      26.823 -24.179   5.859  0.00  0.00    -0.004 A 
ENDBRANCH 100 101
ENDBRANCH   1 100
TORSDOF 47
REMARK  Name = ../refined-set-2016/3d0e/3d0e_pocket.pdb
REMARK  258 active torsions:
REMARK  status: ('A' for Active; 'I' for Inactive)
REMARK    1  A    between atoms: _1  and  _3
REMARK    2  A    between atoms: _3  and  _4
REMARK    3  A    between atoms: _3  and  _6
REMARK    4  A    between atoms: _6  and  _7
REMARK    5  A    between atoms: _10  and  _12
REMARK    6  A    between atoms: _12  and  _13
REMARK    7  A    between atoms: _12  and  _15
REMARK    8  A    between atoms: _15  and  _16
REMARK    9  A    between atoms: _19  and  _21
REMARK   10  A    between atoms: _21  and  _22
REMARK   11  A    between atoms: _24  and  _26
REMARK   12  A    between atoms: _26  and  _27
REMARK   13  A    between atoms: _26  and  _29
REMARK   14  A    between atoms: _29  and  _30
REMARK   15  A    between atoms: _30  and  _31
REMARK   16  A    between atoms: _31  and  _32
REMARK   17  A    between atoms: _32  and  _33
REMARK   18  A    between atoms: _37  and  _39
REMARK   19  A    between atoms: _39  and  _40
REMARK   20  A    between atoms: _42  and  _44
REMARK   21  A    between atoms: _44  and  _45
REMARK   22  A    between atoms: _44  and  _47
REMARK   23  A    between atoms: _47  and  _48
REMARK   24  A    between atoms: _51  and  _53
REMARK   25  A    between atoms: _53  and  _54
REMARK   26  A    between atoms: _53  and  _56
REMARK   27  A    between atoms: _56  and  _57
REMARK   28  A    between atoms: _63  and  _65
REMARK   29  A    between atoms: _65  and  _66
REMARK   30  A    between atoms: _68  and  _70
REMARK   31  A    between atoms: _70  and  _71
REMARK   32  A    between atoms: _70  and  _73
REMARK   33  A    between atoms: _73  and  _74
REMARK   34  A    between atoms: _74  and  _75
REMARK   35  A    between atoms: _75  and  _76
REMARK   36  A    between atoms: _76  and  _77
REMARK   37  A    between atoms: _81  and  _83
REMARK   38  A    between atoms: _83  and  _84
REMARK   39  A    between atoms: _83  and  _86
REMARK   40  A    between atoms: _89  and  _91
REMARK   41  A    between atoms: _91  and  _92
REMARK   42  A    between atoms: _91  and  _94
REMARK   43  A    between atoms: _94  and  _95
REMARK   44  A    between atoms: _98  and  _100
REMARK   45  A    between atoms: _100  and  _101
REMARK   46  A    between atoms: _100  and  _103
REMARK   47  A    between atoms: _103  and  _104
REMARK   48  A    between atoms: _107  and  _109
REMARK   49  A    between atoms: _109  and  _110
REMARK   50  A    between atoms: _109  and  _112
REMARK   51  A    between atoms: _112  and  _113
REMARK   52  A    between atoms: _118  and  _119
REMARK   53  A    between atoms: _121  and  _123
REMARK   54  A    between atoms: _123  and  _124
REMARK   55  A    between atoms: _127  and  _129
REMARK   56  A    between atoms: _129  and  _130
REMARK   57  A    between atoms: _129  and  _132
REMARK   58  A    between atoms: _132  and  _133
REMARK   59  A    between atoms: _133  and  _134
REMARK   60  A    between atoms: _136  and  _138
REMARK   61  A    between atoms: _138  and  _139
REMARK   62  A    between atoms: _138  and  _141
REMARK   63  A    between atoms: _141  and  _142
REMARK   64  A    between atoms: _142  and  _143
REMARK   65  A    between atoms: _143  and  _144
REMARK   66  A    between atoms: _144  and  _145
REMARK   67  A    between atoms: _149  and  _151
REMARK   68  A    between atoms: _151  and  _152
REMARK   69  A    between atoms: _151  and  _154
REMARK   70  A    between atoms: _154  and  _155
REMARK   71  A    between atoms: _158  and  _160
REMARK   72  A    between atoms: _160  and  _161
REMARK   73  A    between atoms: _160  and  _163
REMARK   74  A    between atoms: _163  and  _164
REMARK   75  A    between atoms: _167  and  _169
REMARK   76  A    between atoms: _169  and  _170
REMARK   77  A    between atoms: _169  and  _172
REMARK   78  A    between atoms: _172  and  _173
REMARK   79  A    between atoms: _173  and  _174
REMARK   80  A    between atoms: _177  and  _179
REMARK   81  A    between atoms: _179  and  _180
REMARK   82  A    between atoms: _179  and  _182
REMARK   83  A    between atoms: _182  and  _183
REMARK   84  A    between atoms: _185  and  _187
REMARK   85  A    between atoms: _187  and  _188
REMARK   86  A    between atoms: _187  and  _190
REMARK   87  A    between atoms: _190  and  _191
REMARK   88  A    between atoms: _194  and  _196
REMARK   89  A    between atoms: _196  and  _197
REMARK   90  A    between atoms: _196  and  _199
REMARK   91  A    between atoms: _199  and  _200
REMARK   92  A    between atoms: _203  and  _205
REMARK   93  A    between atoms: _205  and  _206
REMARK   94  A    between atoms: _205  and  _208
REMARK   95  A    between atoms: _208  and  _209
REMARK   96  A    between atoms: _212  and  _214
REMARK   97  A    between atoms: _214  and  _215
REMARK   98  A    between atoms: _218  and  _220
REMARK   99  A    between atoms: _220  and  _221
REMARK  100  A    between atoms: _220  and  _223
REMARK  101  A    between atoms: _223  and  _224
REMARK  102  A    between atoms: _227  and  _229
REMARK  103  A    between atoms: _229  and  _230
REMARK  104  A    between atoms: _229  and  _232
REMARK  105  A    between atoms: _232  and  _233
REMARK  106  A    between atoms: _233  and  _234
REMARK  107  A    between atoms: _234  and  _235
REMARK  108  A    between atoms: _235  and  _236
REMARK  109  A    between atoms: _240  and  _242
REMARK  110  A    between atoms: _242  and  _243
REMARK  111  A    between atoms: _242  and  _245
REMARK  112  A    between atoms: _245  and  _246
REMARK  113  A    between atoms: _251  and  _252
REMARK  114  A    between atoms: _254  and  _256
REMARK  115  A    between atoms: _256  and  _257
REMARK  116  A    between atoms: _260  and  _262
REMARK  117  A    between atoms: _262  and  _263
REMARK  118  A    between atoms: _262  and  _265
REMARK  119  A    between atoms: _267  and  _269
REMARK  120  A    between atoms: _269  and  _270
REMARK  121  A    between atoms: _269  and  _272
REMARK  122  A    between atoms: _272  and  _273
REMARK  123  A    between atoms: _279  and  _281
REMARK  124  A    between atoms: _281  and  _282
REMARK  125  A    between atoms: _281  and  _284
REMARK  126  A    between atoms: _287  and  _289
REMARK  127  A    between atoms: _289  and  _290
REMARK  128  A    between atoms: _289  and  _292
REMARK  129  A    between atoms: _292  and  _293
REMARK  130  A    between atoms: _293  and  _294
REMARK  131  A    between atoms: _296  and  _298
REMARK  132  A    between atoms: _298  and  _299
REMARK  133  A    between atoms: _298  and  _301
REMARK  134  A    between atoms: _301  and  _302
REMARK  135  A    between atoms: _302  and  _303
REMARK  136  A    between atoms: _306  and  _308
REMARK  137  A    between atoms: _308  and  _309
REMARK  138  A    between atoms: _308  and  _311
REMARK  139  A    between atoms: _311  and  _312
REMARK  140  A    between atoms: _317  and  _318
REMARK  141  A    between atoms: _320  and  _322
REMARK  142  A    between atoms: _322  and  _323
REMARK  143  A    between atoms: _326  and  _328
REMARK  144  A    between atoms: _328  and  _329
REMARK  145  A    between atoms: _328  and  _331
REMARK  146  A    between atoms: _331  and  _332
REMARK  147  A    between atoms: _337  and  _339
REMARK  148  A    between atoms: _339  and  _340
REMARK  149  A    between atoms: _342  and  _344
REMARK  150  A    between atoms: _344  and  _345
REMARK  151  A    between atoms: _347  and  _349
REMARK  152  A    between atoms: _349  and  _350
REMARK  153  A    between atoms: _349  and  _352
REMARK  154  A    between atoms: _352  and  _353
REMARK  155  A    between atoms: _353  and  _354
REMARK  156  A    between atoms: _357  and  _359
REMARK  157  A    between atoms: _359  and  _360
REMARK  158  A    between atoms: _359  and  _362
REMARK  159  A    between atoms: _362  and  _363
REMARK  160  A    between atoms: _369  and  _371
REMARK  161  A    between atoms: _371  and  _372
REMARK  162  A    between atoms: _371  and  _374
REMARK  163  A    between atoms: _374  and  _375
REMARK  164  A    between atoms: _381  and  _383
REMARK  165  A    between atoms: _383  and  _384
REMARK  166  A    between atoms: _383  and  _386
REMARK  167  A    between atoms: _386  and  _387
REMARK  168  A    between atoms: _392  and  _393
REMARK  169  A    between atoms: _395  and  _397
REMARK  170  A    between atoms: _397  and  _398
REMARK  171  A    between atoms: _397  and  _400
REMARK  172  A    between atoms: _400  and  _401
REMARK  173  A    between atoms: _404  and  _406
REMARK  174  A    between atoms: _406  and  _407
REMARK  175  A    between atoms: _406  and  _409
REMARK  176  A    between atoms: _409  and  _410
REMARK  177  A    between atoms: _410  and  _411
REMARK  178  A    between atoms: _411  and  _412
REMARK  179  A    between atoms: _412  and  _413
REMARK  180  A    between atoms: _417  and  _419
REMARK  181  A    between atoms: _419  and  _420
REMARK  182  A    between atoms: _419  and  _422
REMARK  183  A    between atoms: _422  and  _423
REMARK  184  A    between atoms: _426  and  _428
REMARK  185  A    between atoms: _428  and  _429
REMARK  186  A    between atoms: _428  and  _431
REMARK  187  A    between atoms: _431  and  _432
REMARK  188  A    between atoms: _432  and  _433
REMARK  189  A    between atoms: _436  and  _438
REMARK  190  A    between atoms: _438  and  _439
REMARK  191  A    between atoms: _438  and  _441
REMARK  192  A    between atoms: _441  and  _442
REMARK  193  A    between atoms: _447  and  _449
REMARK  194  A    between atoms: _449  and  _450
REMARK  195  A    between atoms: _449  and  _452
REMARK  196  A    between atoms: _452  and  _453
REMARK  197  A    between atoms: _456  and  _458
REMARK  198  A    between atoms: _458  and  _459
REMARK  199  A    between atoms: _458  and  _461
REMARK  200  A    between atoms: _461  and  _462
REMARK  201  A    between atoms: _462  and  _463
REMARK  202  A    between atoms: _465  and  _467
REMARK  203  A    between atoms: _467  and  _468
REMARK  204  A    between atoms: _467  and  _470
REMARK  205  A    between atoms: _470  and  _471
REMARK  206  A    between atoms: _474  and  _476
REMARK  207  A    between atoms: _476  and  _477
REMARK  208  A    between atoms: _476  and  _479
REMARK  209  A    between atoms: _479  and  _480
REMARK  210  A    between atoms: _480  and  _481
REMARK  211  A    between atoms: _481  and  _482
REMARK  212  A    between atoms: _482  and  _483
REMARK  213  A    between atoms: _487  and  _489
REMARK  214  A    between atoms: _489  and  _490
REMARK  215  A    between atoms: _489  and  _492
REMARK  216  A    between atoms: _492  and  _493
REMARK  217  A    between atoms: _496  and  _498
REMARK  218  A    between atoms: _498  and  _499
REMARK  219  A    between atoms: _498  and  _501
REMARK  220  A    between atoms: _501  and  _502
REMARK  221  A    between atoms: _505  and  _507
REMARK  222  A    between atoms: _507  and  _508
REMARK  223  A    between atoms: _507  and  _510
REMARK  224  A    between atoms: _510  and  _511
REMARK  225  A    between atoms: _514  and  _516
REMARK  226  A    between atoms: _516  and  _517
REMARK  227  A    between atoms: _516  and  _519
REMARK  228  A    between atoms: _519  and  _520
REMARK  229  A    between atoms: _526  and  _528
REMARK  230  A    between atoms: _528  and  _529
REMARK  231  A    between atoms: _531  and  _533
REMARK  232  A    between atoms: _533  and  _534
REMARK  233  A    between atoms: _533  and  _536
REMARK  234  A    between atoms: _536  and  _537
REMARK  235  A    between atoms: _540  and  _542
REMARK  236  A    between atoms: _542  and  _543
REMARK  237  A    between atoms: _542  and  _545
REMARK  238  A    between atoms: _547  and  _549
REMARK  239  A    between atoms: _549  and  _550
REMARK  240  A    between atoms: _549  and  _552
REMARK  241  A    between atoms: _552  and  _553
REMARK  242  A    between atoms: _559  and  _561
REMARK  243  A    between atoms: _561  and  _562
REMARK  244  A    between atoms: _561  and  _564
REMARK  245  A    between atoms: _564  and  _565
REMARK  246  A    between atoms: _568  and  _570
REMARK  247  A    between atoms: _570  and  _571
REMARK  248  A    between atoms: _570  and  _573
REMARK  249  A    between atoms: _573  and  _574
REMARK  250  A    between atoms: _574  and  _575
REMARK  251  A    between atoms: _578  and  _580
REMARK  252  A    between atoms: _580  and  _581
REMARK  253  A    between atoms: _580  and  _583
REMARK  254  A    between atoms: _583  and  _584
REMARK  255  A    between atoms: _590  and  _592
REMARK  256  A    between atoms: _592  and  _593
REMARK  257  A    between atoms: _592  and  _595
REMARK  258  A    between atoms: _595  and  _596
REMARK                            x       y       z     vdW  Elec       q    Type
REMARK                         _______ _______ _______ _____ _____    ______ ____
ROOT
ATOM      1  C   MET A   3      29.688 -16.457   9.199  0.00  0.00    +0.241 C 
ATOM      2  O   MET A   3      29.890 -17.356  10.015  0.00  0.00    -0.273 OA
ATOM      3  N   LYS A   4      29.296 -16.684   7.951  0.00  0.00    -0.297 N 
ATOM      4  H   LYS A   4      29.071 -15.873   7.340  0.00  0.00    +0.150 HD
ENDROOT
BRANCH   3   5
ATOM      5  CA  LYS A   4      29.171 -18.029   7.409  0.00  0.00    +0.149 C 
BRANCH   5   6
ATOM      6  C   LYS A   4      30.527 -18.428   6.828  0.00  0.00    +0.241 C 
ATOM      7  N   ILE A   5      31.106 -19.501   7.362  0.00  0.00    -0.297 N 
ATOM      8  H   ILE A   5      30.601 -20.020   8.109  0.00  0.00    +0.150 HD
ATOM      9  O   LYS A   4      31.038 -17.764   5.925  0.00  0.00    -0.273 OA
BRANCH   7  10
ATOM     10  CA  ILE A   5      32.418 -19.980   6.944  0.00  0.00    +0.149 C 
BRANCH  10  11
ATOM     11  C   ILE A   5      32.279 -21.336   6.258  0.00  0.00    +0.241 C 
ATOM     12  O   ILE A   5      31.812 -22.300   6.874  0.00  0.00    -0.273 OA
ATOM     13  N   LEU A   6      32.697 -21.398   4.992  0.00  0.00    -0.298 N 
ATOM     14  H   LEU A   6      33.073 -20.535   4.550  0.00  0.00    +0.150 HD
BRANCH  13  15
ATOM     15  CA  LEU A   6      32.650 -22.628   4.198  0.00  0.00    +0.137 C 
BRANCH  15  16
ATOM     16  C   LEU A   6      34.056 -23.055   3.792  0.00  0.00    +0.227 C 
ATOM     17  O   LEU A   6      34.890 -22.214   3.449  0.00  0.00    -0.286 OA
ENDBRANCH  15  16
BRANCH  15  18
ATOM     18  CB  LEU A   6      31.818 -22.415   2.933  0.00  0.00    +0.028 C 
BRANCH  18  19
ATOM     19  CG  LEU A   6      30.507 -21.641   3.069  0.00  0.00    +0.002 C 
ATOM     20  CD2 LEU A   6      29.528 -22.383   3.952  0.00  0.00    +0.000 C 
ATOM     21  CD1 LEU A   6      29.924 -21.381   1.689  0.00  0.00    +0.000 C 
ENDBRANCH  18  19
ENDBRANCH  15  18
ENDBRANCH  13  15
ENDBRANCH  10  11
BRANCH  10  22
ATOM     22  CB  ILE A   5      33.381 -20.139   8.139  0.00  0.00    +0.027 C 
ATOM     23  CG2 ILE A   5      34.748 -20.599   7.654  0.00  0.00    +0.002 C 
BRANCH  22  24
ATOM     24  CG1 ILE A   5      33.522 -18.824   8.910  0.00  0.00    +0.002 C 
ATOM     25  CD1 ILE A   5      34.264 -18.968  10.228  0.00  0.00    +0.000 C 
ENDBRANCH  22  24
ENDBRANCH  10  22
ENDBRANCH   7  10
ENDBRANCH   5   6
BRANCH   5  26
ATOM     26  CB  LYS A   4      28.089 -18.044   6.331  0.00  0.00    +0.029 C 
BRANCH  26  27
ATOM     27  CG  LYS A   4      27.653 -19.403   5.840  0.00  0.00    +0.000 C 
BRANCH  27  28
ATOM     28  CD  LYS A   4      26.724 -19.209   4.646  0.00  0.00    -0.024 C 
BRANCH  28  29
ATOM     29  CE  LYS A   4      26.046 -20.485   4.233  0.00  0.00    -0.086 C 
BRANCH  29  30
ATOM     30  NZ  LYS A   4      25.193 -20.266   3.036  0.00  0.00    +0.380 N 
ATOM     31  HZ1 LYS A   4      24.466 -19.555   3.255  0.00  0.00    -0.089 HD
ATOM     32  HZ2 LYS A   4      24.735 -21.161   2.770  0.00  0.00    -0.089 HD
ATOM     33  HZ3 LYS A   4      25.783 -19.929   2.248  0.00  0.00    -0.089 HD
ENDBRANCH  29  30
ENDBRANCH  28  29
ENDBRANCH  27  28
ENDBRANCH  26  27
ENDBRANCH   5  26
ENDBRANCH   3   5
BRANCH   1  34
ATOM     34  CA  MET A   3      29.912 -14.995   9.576  0.00  0.00    +0.149 C 
BRANCH  34  36
ATOM     35  C   ALA A   2      28.132 -13.556  10.446  0.00  0.00    +0.241 C 
ATOM     36  N   MET A   3      28.984 -14.563  10.622  0.00  0.00    -0.297 N 
ATOM     37  H   MET A   3      28.991 -15.061  11.535  0.00  0.00    +0.150 HD
ATOM     38  O   ALA A   2      28.122 -12.853   9.439  0.00  0.00    -0.273 OA
BRANCH  35  39
ATOM     39  CA  ALA A   2      27.160 -13.273  11.583  0.00  0.00    +0.149 C 
ATOM     40  CB  ALA A   2      25.805 -13.886  11.288  0.00  0.00    +0.031 C 
BRANCH  39  43
ATOM     41  C   TYR A   1      27.706 -11.156  12.675  0.00  0.00    +0.239 C 
ATOM     42  O   TYR A   1      28.273 -11.703  13.630  0.00  0.00    -0.274 OA
ATOM     43  N   ALA A   2      27.051 -11.825  11.730  0.00  0.00    -0.297 N 
ATOM     44  H   ALA A   2      26.440 -11.298  11.073  0.00  0.00    +0.150 HD
BRANCH  41  45
ATOM     45  CA  TYR A   1      27.723  -9.642  12.522  0.00  0.00    +0.149 C 
BRANCH  45  46
ATOM     46  N   TYR A   1      28.235  -9.041  13.750  0.00  0.00    -0.238 NA
ATOM     47  H   TYR A   1      29.027  -9.511  14.234  0.00  0.00    +0.142 HD
ENDBRANCH  45  46
BRANCH  45  48
ATOM     48  CB  TYR A   1      28.618  -9.281  11.332  0.00  0.00    +0.053 C 
BRANCH  48  49
ATOM     49  CG  TYR A   1      28.699  -7.803  11.026  0.00  0.00    -0.020 A 
ATOM     50  CD2 TYR A   1      29.829  -7.062  11.361  0.00  0.00    -0.001 A 
ATOM     51  CE2 TYR A   1      29.906  -5.695  11.076  0.00  0.00    +0.036 A 
ATOM     52  CZ  TYR A   1      28.841  -5.072  10.451  0.00  0.00    +0.134 A 
ATOM     53  CE1 TYR A   1      27.710  -5.794  10.113  0.00  0.00    +0.036 A 
ATOM     54  CD1 TYR A   1      27.646  -7.147  10.400  0.00  0.00    -0.001 A 
BRANCH  52  55
ATOM     55  OH  TYR A   1      28.891  -3.732  10.158  0.00  0.00    -0.506 OA
ATOM     56  HH  TYR A   1      29.758  -3.361  10.460  0.00  0.00    +0.292 HD
ENDBRANCH  52  55
ENDBRANCH  48  49
ENDBRANCH  45  48
ENDBRANCH  41  45
ENDBRANCH  39  43
ENDBRANCH  35  39
ENDBRANCH  34  36
BRANCH  34  57
ATOM     57  CB  MET A   3      31.375 -14.810   9.999  0.00  0.00    +0.041 C 
BRANCH  57  58
ATOM     58  CG  MET A   3      32.364 -15.184   8.889  0.00  0.00    +0.060 C 
BRANCH  58  59
ATOM     59  SD  MET A   3      34.113 -15.114   9.314  0.00  0.00    -0.139 S 
ATOM     60  CE  MET A   3      34.322 -13.379   9.727  0.00  0.00    +0.069 C 
ENDBRANCH  58  59
ENDBRANCH  57  58
ENDBRANCH  34  57
ENDBRANCH   1  34
TORSDOF 27
REMARK  Name = ../refined-set-2016/3d0e/3d0e_pocket.pdb
REMARK  258 active torsions:
REMARK  status: ('A' for Active; 'I' for Inactive)
REMARK    1  A    between atoms: _1  and  _3
REMARK    2  A    between atoms: _3  and  _4
REMARK    3  A    between atoms: _3  and  _6
REMARK    4  A    between atoms: _6  and  _7
REMARK    5  A    between atoms: _10  and  _12
REMARK    6  A    between atoms: _12  and  _13
REMARK    7  A    between atoms: _12  and  _15
REMARK    8  A    between atoms: _15  and  _16
REMARK    9  A    between atoms: _19  and  _21
REMARK   10  A    between atoms: _21  and  _22
REMARK   11  A    between atoms: _24  and  _26
REMARK   12  A    between atoms: _26  and  _27
REMARK   13  A    between atoms: _26  and  _29
REMARK   14  A    between atoms: _29  and  _30
REMARK   15  A    between atoms: _30  and  _31
REMARK   16  A    between atoms: _31  and  _32
REMARK   17  A    between atoms: _32  and  _33
REMARK   18  A    between atoms: _37  and  _39
REMARK   19  A    between atoms: _39  and  _40
REMARK   20  A    between atoms: _42  and  _44
REMARK   21  A    between atoms: _44  and  _45
REMARK   22  A    between atoms: _44  and  _47
REMARK   23  A    between atoms: _47  and  _48
REMARK   24  A    between atoms: _51  and  _53
REMARK   25  A    between atoms: _53  and  _54
REMARK   26  A    between atoms: _53  and  _56
REMARK   27  A    between atoms: _56  and  _57
REMARK   28  A    between atoms: _63  and  _65
REMARK   29  A    between atoms: _65  and  _66
REMARK   30  A    between atoms: _68  and  _70
REMARK   31  A    between atoms: _70  and  _71
REMARK   32  A    between atoms: _70  and  _73
REMARK   33  A    between atoms: _73  and  _74
REMARK   34  A    between atoms: _74  and  _75
REMARK   35  A    between atoms: _75  and  _76
REMARK   36  A    between atoms: _76  and  _77
REMARK   37  A    between atoms: _81  and  _83
REMARK   38  A    between atoms: _83  and  _84
REMARK   39  A    between atoms: _83  and  _86
REMARK   40  A    between atoms: _89  and  _91
REMARK   41  A    between atoms: _91  and  _92
REMARK   42  A    between atoms: _91  and  _94
REMARK   43  A    between atoms: _94  and  _95
REMARK   44  A    between atoms: _98  and  _100
REMARK   45  A    between atoms: _100  and  _101
REMARK   46  A    between atoms: _100  and  _103
REMARK   47  A    between atoms: _103  and  _104
REMARK   48  A    between atoms: _107  and  _109
REMARK   49  A    between atoms: _109  and  _110
REMARK   50  A    between atoms: _109  and  _112
REMARK   51  A    between atoms: _112  and  _113
REMARK   52  A    between atoms: _118  and  _119
REMARK   53  A    between atoms: _121  and  _123
REMARK   54  A    between atoms: _123  and  _124
REMARK   55  A    between atoms: _127  and  _129
REMARK   56  A    between atoms: _129  and  _130
REMARK   57  A    between atoms: _129  and  _132
REMARK   58  A    between atoms: _132  and  _133
REMARK   59  A    between atoms: _133  and  _134
REMARK   60  A    between atoms: _136  and  _138
REMARK   61  A    between atoms: _138  and  _139
REMARK   62  A    between atoms: _138  and  _141
REMARK   63  A    between atoms: _141  and  _142
REMARK   64  A    between atoms: _142  and  _143
REMARK   65  A    between atoms: _143  and  _144
REMARK   66  A    between atoms: _144  and  _145
REMARK   67  A    between atoms: _149  and  _151
REMARK   68  A    between atoms: _151  and  _152
REMARK   69  A    between atoms: _151  and  _154
REMARK   70  A    between atoms: _154  and  _155
REMARK   71  A    between atoms: _158  and  _160
REMARK   72  A    between atoms: _160  and  _161
REMARK   73  A    between atoms: _160  and  _163
REMARK   74  A    between atoms: _163  and  _164
REMARK   75  A    between atoms: _167  and  _169
REMARK   76  A    between atoms: _169  and  _170
REMARK   77  A    between atoms: _169  and  _172
REMARK   78  A    between atoms: _172  and  _173
REMARK   79  A    between atoms: _173  and  _174
REMARK   80  A    between atoms: _177  and  _179
REMARK   81  A    between atoms: _179  and  _180
REMARK   82  A    between atoms: _179  and  _182
REMARK   83  A    between atoms: _182  and  _183
REMARK   84  A    between atoms: _185  and  _187
REMARK   85  A    between atoms: _187  and  _188
REMARK   86  A    between atoms: _187  and  _190
REMARK   87  A    between atoms: _190  and  _191
REMARK   88  A    between atoms: _194  and  _196
REMARK   89  A    between atoms: _196  and  _197
REMARK   90  A    between atoms: _196  and  _199
REMARK   91  A    between atoms: _199  and  _200
REMARK   92  A    between atoms: _203  and  _205
REMARK   93  A    between atoms: _205  and  _206
REMARK   94  A    between atoms: _205  and  _208
REMARK   95  A    between atoms: _208  and  _209
REMARK   96  A    between atoms: _212  and  _214
REMARK   97  A    between atoms: _214  and  _215
REMARK   98  A    between atoms: _218  and  _220
REMARK   99  A    between atoms: _220  and  _221
REMARK  100  A    between atoms: _220  and  _223
REMARK  101  A    between atoms: _223  and  _224
REMARK  102  A    between atoms: _227  and  _229
REMARK  103  A    between atoms: _229  and  _230
REMARK  104  A    between atoms: _229  and  _232
REMARK  105  A    between atoms: _232  and  _233
REMARK  106  A    between atoms: _233  and  _234
REMARK  107  A    between atoms: _234  and  _235
REMARK  108  A    between atoms: _235  and  _236
REMARK  109  A    between atoms: _240  and  _242
REMARK  110  A    between atoms: _242  and  _243
REMARK  111  A    between atoms: _242  and  _245
REMARK  112  A    between atoms: _245  and  _246
REMARK  113  A    between atoms: _251  and  _252
REMARK  114  A    between atoms: _254  and  _256
REMARK  115  A    between atoms: _256  and  _257
REMARK  116  A    between atoms: _260  and  _262
REMARK  117  A    between atoms: _262  and  _263
REMARK  118  A    between atoms: _262  and  _265
REMARK  119  A    between atoms: _267  and  _269
REMARK  120  A    between atoms: _269  and  _270
REMARK  121  A    between atoms: _269  and  _272
REMARK  122  A    between atoms: _272  and  _273
REMARK  123  A    between atoms: _279  and  _281
REMARK  124  A    between atoms: _281  and  _282
REMARK  125  A    between atoms: _281  and  _284
REMARK  126  A    between atoms: _287  and  _289
REMARK  127  A    between atoms: _289  and  _290
REMARK  128  A    between atoms: _289  and  _292
REMARK  129  A    between atoms: _292  and  _293
REMARK  130  A    between atoms: _293  and  _294
REMARK  131  A    between atoms: _296  and  _298
REMARK  132  A    between atoms: _298  and  _299
REMARK  133  A    between atoms: _298  and  _301
REMARK  134  A    between atoms: _301  and  _302
REMARK  135  A    between atoms: _302  and  _303
REMARK  136  A    between atoms: _306  and  _308
REMARK  137  A    between atoms: _308  and  _309
REMARK  138  A    between atoms: _308  and  _311
REMARK  139  A    between atoms: _311  and  _312
REMARK  140  A    between atoms: _317  and  _318
REMARK  141  A    between atoms: _320  and  _322
REMARK  142  A    between atoms: _322  and  _323
REMARK  143  A    between atoms: _326  and  _328
REMARK  144  A    between atoms: _328  and  _329
REMARK  145  A    between atoms: _328  and  _331
REMARK  146  A    between atoms: _331  and  _332
REMARK  147  A    between atoms: _337  and  _339
REMARK  148  A    between atoms: _339  and  _340
REMARK  149  A    between atoms: _342  and  _344
REMARK  150  A    between atoms: _344  and  _345
REMARK  151  A    between atoms: _347  and  _349
REMARK  152  A    between atoms: _349  and  _350
REMARK  153  A    between atoms: _349  and  _352
REMARK  154  A    between atoms: _352  and  _353
REMARK  155  A    between atoms: _353  and  _354
REMARK  156  A    between atoms: _357  and  _359
REMARK  157  A    between atoms: _359  and  _360
REMARK  158  A    between atoms: _359  and  _362
REMARK  159  A    between atoms: _362  and  _363
REMARK  160  A    between atoms: _369  and  _371
REMARK  161  A    between atoms: _371  and  _372
REMARK  162  A    between atoms: _371  and  _374
REMARK  163  A    between atoms: _374  and  _375
REMARK  164  A    between atoms: _381  and  _383
REMARK  165  A    between atoms: _383  and  _384
REMARK  166  A    between atoms: _383  and  _386
REMARK  167  A    between atoms: _386  and  _387
REMARK  168  A    between atoms: _392  and  _393
REMARK  169  A    between atoms: _395  and  _397
REMARK  170  A    between atoms: _397  and  _398
REMARK  171  A    between atoms: _397  and  _400
REMARK  172  A    between atoms: _400  and  _401
REMARK  173  A    between atoms: _404  and  _406
REMARK  174  A    between atoms: _406  and  _407
REMARK  175  A    between atoms: _406  and  _409
REMARK  176  A    between atoms: _409  and  _410
REMARK  177  A    between atoms: _410  and  _411
REMARK  178  A    between atoms: _411  and  _412
REMARK  179  A    between atoms: _412  and  _413
REMARK  180  A    between atoms: _417  and  _419
REMARK  181  A    between atoms: _419  and  _420
REMARK  182  A    between atoms: _419  and  _422
REMARK  183  A    between atoms: _422  and  _423
REMARK  184  A    between atoms: _426  and  _428
REMARK  185  A    between atoms: _428  and  _429
REMARK  186  A    between atoms: _428  and  _431
REMARK  187  A    between atoms: _431  and  _432
REMARK  188  A    between atoms: _432  and  _433
REMARK  189  A    between atoms: _436  and  _438
REMARK  190  A    between atoms: _438  and  _439
REMARK  191  A    between atoms: _438  and  _441
REMARK  192  A    between atoms: _441  and  _442
REMARK  193  A    between atoms: _447  and  _449
REMARK  194  A    between atoms: _449  and  _450
REMARK  195  A    between atoms: _449  and  _452
REMARK  196  A    between atoms: _452  and  _453
REMARK  197  A    between atoms: _456  and  _458
REMARK  198  A    between atoms: _458  and  _459
REMARK  199  A    between atoms: _458  and  _461
REMARK  200  A    between atoms: _461  and  _462
REMARK  201  A    between atoms: _462  and  _463
REMARK  202  A    between atoms: _465  and  _467
REMARK  203  A    between atoms: _467  and  _468
REMARK  204  A    between atoms: _467  and  _470
REMARK  205  A    between atoms: _470  and  _471
REMARK  206  A    between atoms: _474  and  _476
REMARK  207  A    between atoms: _476  and  _477
REMARK  208  A    between atoms: _476  and  _479
REMARK  209  A    between atoms: _479  and  _480
REMARK  210  A    between atoms: _480  and  _481
REMARK  211  A    between atoms: _481  and  _482
REMARK  212  A    between atoms: _482  and  _483
REMARK  213  A    between atoms: _487  and  _489
REMARK  214  A    between atoms: _489  and  _490
REMARK  215  A    between atoms: _489  and  _492
REMARK  216  A    between atoms: _492  and  _493
REMARK  217  A    between atoms: _496  and  _498
REMARK  218  A    between atoms: _498  and  _499
REMARK  219  A    between atoms: _498  and  _501
REMARK  220  A    between atoms: _501  and  _502
REMARK  221  A    between atoms: _505  and  _507
REMARK  222  A    between atoms: _507  and  _508
REMARK  223  A    between atoms: _507  and  _510
REMARK  224  A    between atoms: _510  and  _511
REMARK  225  A    between atoms: _514  and  _516
REMARK  226  A    between atoms: _516  and  _517
REMARK  227  A    between atoms: _516  and  _519
REMARK  228  A    between atoms: _519  and  _520
REMARK  229  A    between atoms: _526  and  _528
REMARK  230  A    between atoms: _528  and  _529
REMARK  231  A    between atoms: _531  and  _533
REMARK  232  A    between atoms: _533  and  _534
REMARK  233  A    between atoms: _533  and  _536
REMARK  234  A    between atoms: _536  and  _537
REMARK  235  A    between atoms: _540  and  _542
REMARK  236  A    between atoms: _542  and  _543
REMARK  237  A    between atoms: _542  and  _545
REMARK  238  A    between atoms: _547  and  _549
REMARK  239  A    between atoms: _549  and  _550
REMARK  240  A    between atoms: _549  and  _552
REMARK  241  A    between atoms: _552  and  _553
REMARK  242  A    between atoms: _559  and  _561
REMARK  243  A    between atoms: _561  and  _562
REMARK  244  A    between atoms: _561  and  _564
REMARK  245  A    between atoms: _564  and  _565
REMARK  246  A    between atoms: _568  and  _570
REMARK  247  A    between atoms: _570  and  _571
REMARK  248  A    between atoms: _570  and  _573
REMARK  249  A    between atoms: _573  and  _574
REMARK  250  A    between atoms: _574  and  _575
REMARK  251  A    between atoms: _578  and  _580
REMARK  252  A    between atoms: _580  and  _581
REMARK  253  A    between atoms: _580  and  _583
REMARK  254  A    between atoms: _583  and  _584
REMARK  255  A    between atoms: _590  and  _592
REMARK  256  A    between atoms: _592  and  _593
REMARK  257  A    between atoms: _592  and  _595
REMARK  258  A    between atoms: _595  and  _596
REMARK                            x       y       z     vdW  Elec       q    Type
REMARK                         _______ _______ _______ _____ _____    ______ ____
ROOT
ATOM      1  C   GLU A   1      25.753 -15.330  -3.224  0.00  0.00    +0.238 C 
ATOM      2  O   GLU A   1      25.016 -14.429  -2.849  0.00  0.00    -0.274 OA
ATOM      3  N   SER A   2      27.057 -15.158  -3.440  0.00  0.00    -0.296 N 
ATOM      4  H   SER A   2      27.639 -15.976  -3.712  0.00  0.00    +0.150 HD
ENDROOT
BRANCH   1   5
ATOM      5  CA  GLU A   1      25.180 -16.725  -3.485  0.00  0.00    +0.145 C 
BRANCH   5   6
ATOM      6  N   GLU A   1      25.610 -17.219  -4.800  0.00  0.00    -0.238 NA
ATOM      7  H   GLU A   1      26.073 -18.148  -4.863  0.00  0.00    +0.142 HD
ENDBRANCH   5   6
BRANCH   5   8
ATOM      8  CB  GLU A   1      25.598 -17.688  -2.374  0.00  0.00    +0.038 C 
BRANCH   8   9
ATOM      9  CG  GLU A   1      25.040 -17.331  -0.992  0.00  0.00    +0.116 C 
BRANCH   9  10
ATOM     10  CD  GLU A   1      25.282 -18.406   0.049  0.00  0.00    +0.365 C 
ATOM     11  OE2 GLU A   1      24.841 -18.224   1.207  0.00  0.00    -0.246 OA
ATOM     12  OE1 GLU A   1      25.914 -19.432  -0.275  0.00  0.00    -0.246 OA
ENDBRANCH   9  10
ENDBRANCH   8   9
ENDBRANCH   5   8
ENDBRANCH   1   5
BRANCH   3  13
ATOM     13  CA  SER A   2      27.692 -13.840  -3.303  0.00  0.00    +0.166 C 
BRANCH  13  14
ATOM     14  C   SER A   2      27.184 -12.852  -4.349  0.00  0.00    +0.229 C 
ATOM     15  O   SER A   2      26.775 -11.748  -4.011  0.00  0.00    -0.286 OA
ENDBRANCH  13  14
BRANCH  13  16
ATOM     16  CB  SER A   2      29.216 -13.944  -3.395  0.00  0.00    +0.165 C 
BRANCH  16  17
ATOM     17  OG  SER A   2      29.823 -12.660  -3.296  0.00  0.00    -0.380 OA
ATOM     18  H   SER A   2      30.806 -12.755  -3.358  0.00  0.00    +0.211 HD
ENDBRANCH  16  17
ENDBRANCH  13  16
ENDBRANCH   3  13
TORSDOF 9
REMARK  Name = ../refined-set-2016/3d0e/3d0e_pocket.pdb
REMARK  258 active torsions:
REMARK  status: ('A' for Active; 'I' for Inactive)
REMARK    1  A    between atoms: _1  and  _3
REMARK    2  A    between atoms: _3  and  _4
REMARK    3  A    between atoms: _3  and  _6
REMARK    4  A    between atoms: _6  and  _7
REMARK    5  A    between atoms: _10  and  _12
REMARK    6  A    between atoms: _12  and  _13
REMARK    7  A    between atoms: _12  and  _15
REMARK    8  A    between atoms: _15  and  _16
REMARK    9  A    between atoms: _19  and  _21
REMARK   10  A    between atoms: _21  and  _22
REMARK   11  A    between atoms: _24  and  _26
REMARK   12  A    between atoms: _26  and  _27
REMARK   13  A    between atoms: _26  and  _29
REMARK   14  A    between atoms: _29  and  _30
REMARK   15  A    between atoms: _30  and  _31
REMARK   16  A    between atoms: _31  and  _32
REMARK   17  A    between atoms: _32  and  _33
REMARK   18  A    between atoms: _37  and  _39
REMARK   19  A    between atoms: _39  and  _40
REMARK   20  A    between atoms: _42  and  _44
REMARK   21  A    between atoms: _44  and  _45
REMARK   22  A    between atoms: _44  and  _47
REMARK   23  A    between atoms: _47  and  _48
REMARK   24  A    between atoms: _51  and  _53
REMARK   25  A    between atoms: _53  and  _54
REMARK   26  A    between atoms: _53  and  _56
REMARK   27  A    between atoms: _56  and  _57
REMARK   28  A    between atoms: _63  and  _65
REMARK   29  A    between atoms: _65  and  _66
REMARK   30  A    between atoms: _68  and  _70
REMARK   31  A    between atoms: _70  and  _71
REMARK   32  A    between atoms: _70  and  _73
REMARK   33  A    between atoms: _73  and  _74
REMARK   34  A    between atoms: _74  and  _75
REMARK   35  A    between atoms: _75  and  _76
REMARK   36  A    between atoms: _76  and  _77
REMARK   37  A    between atoms: _81  and  _83
REMARK   38  A    between atoms: _83  and  _84
REMARK   39  A    between atoms: _83  and  _86
REMARK   40  A    between atoms: _89  and  _91
REMARK   41  A    between atoms: _91  and  _92
REMARK   42  A    between atoms: _91  and  _94
REMARK   43  A    between atoms: _94  and  _95
REMARK   44  A    between atoms: _98  and  _100
REMARK   45  A    between atoms: _100  and  _101
REMARK   46  A    between atoms: _100  and  _103
REMARK   47  A    between atoms: _103  and  _104
REMARK   48  A    between atoms: _107  and  _109
REMARK   49  A    between atoms: _109  and  _110
REMARK   50  A    between atoms: _109  and  _112
REMARK   51  A    between atoms: _112  and  _113
REMARK   52  A    between atoms: _118  and  _119
REMARK   53  A    between atoms: _121  and  _123
REMARK   54  A    between atoms: _123  and  _124
REMARK   55  A    between atoms: _127  and  _129
REMARK   56  A    between atoms: _129  and  _130
REMARK   57  A    between atoms: _129  and  _132
REMARK   58  A    between atoms: _132  and  _133
REMARK   59  A    between atoms: _133  and  _134
REMARK   60  A    between atoms: _136  and  _138
REMARK   61  A    between atoms: _138  and  _139
REMARK   62  A    between atoms: _138  and  _141
REMARK   63  A    between atoms: _141  and  _142
REMARK   64  A    between atoms: _142  and  _143
REMARK   65  A    between atoms: _143  and  _144
REMARK   66  A    between atoms: _144  and  _145
REMARK   67  A    between atoms: _149  and  _151
REMARK   68  A    between atoms: _151  and  _152
REMARK   69  A    between atoms: _151  and  _154
REMARK   70  A    between atoms: _154  and  _155
REMARK   71  A    between atoms: _158  and  _160
REMARK   72  A    between atoms: _160  and  _161
REMARK   73  A    between atoms: _160  and  _163
REMARK   74  A    between atoms: _163  and  _164
REMARK   75  A    between atoms: _167  and  _169
REMARK   76  A    between atoms: _169  and  _170
REMARK   77  A    between atoms: _169  and  _172
REMARK   78  A    between atoms: _172  and  _173
REMARK   79  A    between atoms: _173  and  _174
REMARK   80  A    between atoms: _177  and  _179
REMARK   81  A    between atoms: _179  and  _180
REMARK   82  A    between atoms: _179  and  _182
REMARK   83  A    between atoms: _182  and  _183
REMARK   84  A    between atoms: _185  and  _187
REMARK   85  A    between atoms: _187  and  _188
REMARK   86  A    between atoms: _187  and  _190
REMARK   87  A    between atoms: _190  and  _191
REMARK   88  A    between atoms: _194  and  _196
REMARK   89  A    between atoms: _196  and  _197
REMARK   90  A    between atoms: _196  and  _199
REMARK   91  A    between atoms: _199  and  _200
REMARK   92  A    between atoms: _203  and  _205
REMARK   93  A    between atoms: _205  and  _206
REMARK   94  A    between atoms: _205  and  _208
REMARK   95  A    between atoms: _208  and  _209
REMARK   96  A    between atoms: _212  and  _214
REMARK   97  A    between atoms: _214  and  _215
REMARK   98  A    between atoms: _218  and  _220
REMARK   99  A    between atoms: _220  and  _221
REMARK  100  A    between atoms: _220  and  _223
REMARK  101  A    between atoms: _223  and  _224
REMARK  102  A    between atoms: _227  and  _229
REMARK  103  A    between atoms: _229  and  _230
REMARK  104  A    between atoms: _229  and  _232
REMARK  105  A    between atoms: _232  and  _233
REMARK  106  A    between atoms: _233  and  _234
REMARK  107  A    between atoms: _234  and  _235
REMARK  108  A    between atoms: _235  and  _236
REMARK  109  A    between atoms: _240  and  _242
REMARK  110  A    between atoms: _242  and  _243
REMARK  111  A    between atoms: _242  and  _245
REMARK  112  A    between atoms: _245  and  _246
REMARK  113  A    between atoms: _251  and  _252
REMARK  114  A    between atoms: _254  and  _256
REMARK  115  A    between atoms: _256  and  _257
REMARK  116  A    between atoms: _260  and  _262
REMARK  117  A    between atoms: _262  and  _263
REMARK  118  A    between atoms: _262  and  _265
REMARK  119  A    between atoms: _267  and  _269
REMARK  120  A    between atoms: _269  and  _270
REMARK  121  A    between atoms: _269  and  _272
REMARK  122  A    between atoms: _272  and  _273
REMARK  123  A    between atoms: _279  and  _281
REMARK  124  A    between atoms: _281  and  _282
REMARK  125  A    between atoms: _281  and  _284
REMARK  126  A    between atoms: _287  and  _289
REMARK  127  A    between atoms: _289  and  _290
REMARK  128  A    between atoms: _289  and  _292
REMARK  129  A    between atoms: _292  and  _293
REMARK  130  A    between atoms: _293  and  _294
REMARK  131  A    between atoms: _296  and  _298
REMARK  132  A    between atoms: _298  and  _299
REMARK  133  A    between atoms: _298  and  _301
REMARK  134  A    between atoms: _301  and  _302
REMARK  135  A    between atoms: _302  and  _303
REMARK  136  A    between atoms: _306  and  _308
REMARK  137  A    between atoms: _308  and  _309
REMARK  138  A    between atoms: _308  and  _311
REMARK  139  A    between atoms: _311  and  _312
REMARK  140  A    between atoms: _317  and  _318
REMARK  141  A    between atoms: _320  and  _322
REMARK  142  A    between atoms: _322  and  _323
REMARK  143  A    between atoms: _326  and  _328
REMARK  144  A    between atoms: _328  and  _329
REMARK  145  A    between atoms: _328  and  _331
REMARK  146  A    between atoms: _331  and  _332
REMARK  147  A    between atoms: _337  and  _339
REMARK  148  A    between atoms: _339  and  _340
REMARK  149  A    between atoms: _342  and  _344
REMARK  150  A    between atoms: _344  and  _345
REMARK  151  A    between atoms: _347  and  _349
REMARK  152  A    between atoms: _349  and  _350
REMARK  153  A    between atoms: _349  and  _352
REMARK  154  A    between atoms: _352  and  _353
REMARK  155  A    between atoms: _353  and  _354
REMARK  156  A    between atoms: _357  and  _359
REMARK  157  A    between atoms: _359  and  _360
REMARK  158  A    between atoms: _359  and  _362
REMARK  159  A    between atoms: _362  and  _363
REMARK  160  A    between atoms: _369  and  _371
REMARK  161  A    between atoms: _371  and  _372
REMARK  162  A    between atoms: _371  and  _374
REMARK  163  A    between atoms: _374  and  _375
REMARK  164  A    between atoms: _381  and  _383
REMARK  165  A    between atoms: _383  and  _384
REMARK  166  A    between atoms: _383  and  _386
REMARK  167  A    between atoms: _386  and  _387
REMARK  168  A    between atoms: _392  and  _393
REMARK  169  A    between atoms: _395  and  _397
REMARK  170  A    between atoms: _397  and  _398
REMARK  171  A    between atoms: _397  and  _400
REMARK  172  A    between atoms: _400  and  _401
REMARK  173  A    between atoms: _404  and  _406
REMARK  174  A    between atoms: _406  and  _407
REMARK  175  A    between atoms: _406  and  _409
REMARK  176  A    between atoms: _409  and  _410
REMARK  177  A    between atoms: _410  and  _411
REMARK  178  A    between atoms: _411  and  _412
REMARK  179  A    between atoms: _412  and  _413
REMARK  180  A    between atoms: _417  and  _419
REMARK  181  A    between atoms: _419  and  _420
REMARK  182  A    between atoms: _419  and  _422
REMARK  183  A    between atoms: _422  and  _423
REMARK  184  A    between atoms: _426  and  _428
REMARK  185  A    between atoms: _428  and  _429
REMARK  186  A    between atoms: _428  and  _431
REMARK  187  A    between atoms: _431  and  _432
REMARK  188  A    between atoms: _432  and  _433
REMARK  189  A    between atoms: _436  and  _438
REMARK  190  A    between atoms: _438  and  _439
REMARK  191  A    between atoms: _438  and  _441
REMARK  192  A    between atoms: _441  and  _442
REMARK  193  A    between atoms: _447  and  _449
REMARK  194  A    between atoms: _449  and  _450
REMARK  195  A    between atoms: _449  and  _452
REMARK  196  A    between atoms: _452  and  _453
REMARK  197  A    between atoms: _456  and  _458
REMARK  198  A    between atoms: _458  and  _459
REMARK  199  A    between atoms: _458  and  _461
REMARK  200  A    between atoms: _461  and  _462
REMARK  201  A    between atoms: _462  and  _463
REMARK  202  A    between atoms: _465  and  _467
REMARK  203  A    between atoms: _467  and  _468
REMARK  204  A    between atoms: _467  and  _470
REMARK  205  A    between atoms: _470  and  _471
REMARK  206  A    between atoms: _474  and  _476
REMARK  207  A    between atoms: _476  and  _477
REMARK  208  A    between atoms: _476  and  _479
REMARK  209  A    between atoms: _479  and  _480
REMARK  210  A    between atoms: _480  and  _481
REMARK  211  A    between atoms: _481  and  _482
REMARK  212  A    between atoms: _482  and  _483
REMARK  213  A    between atoms: _487  and  _489
REMARK  214  A    between atoms: _489  and  _490
REMARK  215  A    between atoms: _489  and  _492
REMARK  216  A    between atoms: _492  and  _493
REMARK  217  A    between atoms: _496  and  _498
REMARK  218  A    between atoms: _498  and  _499
REMARK  219  A    between atoms: _498  and  _501
REMARK  220  A    between atoms: _501  and  _502
REMARK  221  A    between atoms: _505  and  _507
REMARK  222  A    between atoms: _507  and  _508
REMARK  223  A    between atoms: _507  and  _510
REMARK  224  A    between atoms: _510  and  _511
REMARK  225  A    between atoms: _514  and  _516
REMARK  226  A    between atoms: _516  and  _517
REMARK  227  A    between atoms: _516  and  _519
REMARK  228  A    between atoms: _519  and  _520
REMARK  229  A    between atoms: _526  and  _528
REMARK  230  A    between atoms: _528  and  _529
REMARK  231  A    between atoms: _531  and  _533
REMARK  232  A    between atoms: _533  and  _534
REMARK  233  A    between atoms: _533  and  _536
REMARK  234  A    between atoms: _536  and  _537
REMARK  235  A    between atoms: _540  and  _542
REMARK  236  A    between atoms: _542  and  _543
REMARK  237  A    between atoms: _542  and  _545
REMARK  238  A    between atoms: _547  and  _549
REMARK  239  A    between atoms: _549  and  _550
REMARK  240  A    between atoms: _549  and  _552
REMARK  241  A    between atoms: _552  and  _553
REMARK  242  A    between atoms: _559  and  _561
REMARK  243  A    between atoms: _561  and  _562
REMARK  244  A    between atoms: _561  and  _564
REMARK  245  A    between atoms: _564  and  _565
REMARK  246  A    between atoms: _568  and  _570
REMARK  247  A    between atoms: _570  and  _571
REMARK  248  A    between atoms: _570  and  _573
REMARK  249  A    between atoms: _573  and  _574
REMARK  250  A    between atoms: _574  and  _575
REMARK  251  A    between atoms: _578  and  _580
REMARK  252  A    between atoms: _580  and  _581
REMARK  253  A    between atoms: _580  and  _583
REMARK  254  A    between atoms: _583  and  _584
REMARK  255  A    between atoms: _590  and  _592
REMARK  256  A    between atoms: _592  and  _593
REMARK  257  A    between atoms: _592  and  _595
REMARK  258  A    between atoms: _595  and  _596
REMARK                            x       y       z     vdW  Elec       q    Type
REMARK                         _______ _______ _______ _____ _____    ______ ____
ROOT
ATOM      1  CA  LEU A   1      23.675 -10.652  -2.393  0.00  0.00    +0.133 C 
ENDROOT
BRANCH   1   2
ATOM      2  N   LEU A   1      23.651 -11.520  -3.578  0.00  0.00    -0.239 NA
ATOM      3  H   LEU A   1      24.118 -12.448  -3.533  0.00  0.00    +0.142 HD
ENDBRANCH   1   2
BRANCH   1   4
ATOM      4  C   LEU A   1      24.349  -9.293  -2.621  0.00  0.00    +0.224 C 
ATOM      5  O   LEU A   1      23.995  -8.312  -1.963  0.00  0.00    -0.287 OA
ENDBRANCH   1   4
BRANCH   1   6
ATOM      6  CB  LEU A   1      24.352 -11.362  -1.221  0.00  0.00    +0.025 C 
BRANCH   6   7
ATOM      7  CG  LEU A   1      23.551 -12.482  -0.558  0.00  0.00    +0.002 C 
ATOM      8  CD2 LEU A   1      24.422 -13.220   0.434  0.00  0.00    +0.000 C 
ATOM      9  CD1 LEU A   1      22.317 -11.921   0.117  0.00  0.00    +0.000 C 
ENDBRANCH   6   7
ENDBRANCH   1   6
TORSDOF 4
REMARK  Name = ../refined-set-2016/3d0e/3d0e_pocket.pdb
REMARK  258 active torsions:
REMARK  status: ('A' for Active; 'I' for Inactive)
REMARK    1  A    between atoms: _1  and  _3
REMARK    2  A    between atoms: _3  and  _4
REMARK    3  A    between atoms: _3  and  _6
REMARK    4  A    between atoms: _6  and  _7
REMARK    5  A    between atoms: _10  and  _12
REMARK    6  A    between atoms: _12  and  _13
REMARK    7  A    between atoms: _12  and  _15
REMARK    8  A    between atoms: _15  and  _16
REMARK    9  A    between atoms: _19  and  _21
REMARK   10  A    between atoms: _21  and  _22
REMARK   11  A    between atoms: _24  and  _26
REMARK   12  A    between atoms: _26  and  _27
REMARK   13  A    between atoms: _26  and  _29
REMARK   14  A    between atoms: _29  and  _30
REMARK   15  A    between atoms: _30  and  _31
REMARK   16  A    between atoms: _31  and  _32
REMARK   17  A    between atoms: _32  and  _33
REMARK   18  A    between atoms: _37  and  _39
REMARK   19  A    between atoms: _39  and  _40
REMARK   20  A    between atoms: _42  and  _44
REMARK   21  A    between atoms: _44  and  _45
REMARK   22  A    between atoms: _44  and  _47
REMARK   23  A    between atoms: _47  and  _48
REMARK   24  A    between atoms: _51  and  _53
REMARK   25  A    between atoms: _53  and  _54
REMARK   26  A    between atoms: _53  and  _56
REMARK   27  A    between atoms: _56  and  _57
REMARK   28  A    between atoms: _63  and  _65
REMARK   29  A    between atoms: _65  and  _66
REMARK   30  A    between atoms: _68  and  _70
REMARK   31  A    between atoms: _70  and  _71
REMARK   32  A    between atoms: _70  and  _73
REMARK   33  A    between atoms: _73  and  _74
REMARK   34  A    between atoms: _74  and  _75
REMARK   35  A    between atoms: _75  and  _76
REMARK   36  A    between atoms: _76  and  _77
REMARK   37  A    between atoms: _81  and  _83
REMARK   38  A    between atoms: _83  and  _84
REMARK   39  A    between atoms: _83  and  _86
REMARK   40  A    between atoms: _89  and  _91
REMARK   41  A    between atoms: _91  and  _92
REMARK   42  A    between atoms: _91  and  _94
REMARK   43  A    between atoms: _94  and  _95
REMARK   44  A    between atoms: _98  and  _100
REMARK   45  A    between atoms: _100  and  _101
REMARK   46  A    between atoms: _100  and  _103
REMARK   47  A    between atoms: _103  and  _104
REMARK   48  A    between atoms: _107  and  _109
REMARK   49  A    between atoms: _109  and  _110
REMARK   50  A    between atoms: _109  and  _112
REMARK   51  A    between atoms: _112  and  _113
REMARK   52  A    between atoms: _118  and  _119
REMARK   53  A    between atoms: _121  and  _123
REMARK   54  A    between atoms: _123  and  _124
REMARK   55  A    between atoms: _127  and  _129
REMARK   56  A    between atoms: _129  and  _130
REMARK   57  A    between atoms: _129  and  _132
REMARK   58  A    between atoms: _132  and  _133
REMARK   59  A    between atoms: _133  and  _134
REMARK   60  A    between atoms: _136  and  _138
REMARK   61  A    between atoms: _138  and  _139
REMARK   62  A    between atoms: _138  and  _141
REMARK   63  A    between atoms: _141  and  _142
REMARK   64  A    between atoms: _142  and  _143
REMARK   65  A    between atoms: _143  and  _144
REMARK   66  A    between atoms: _144  and  _145
REMARK   67  A    between atoms: _149  and  _151
REMARK   68  A    between atoms: _151  and  _152
REMARK   69  A    between atoms: _151  and  _154
REMARK   70  A    between atoms: _154  and  _155
REMARK   71  A    between atoms: _158  and  _160
REMARK   72  A    between atoms: _160  and  _161
REMARK   73  A    between atoms: _160  and  _163
REMARK   74  A    between atoms: _163  and  _164
REMARK   75  A    between atoms: _167  and  _169
REMARK   76  A    between atoms: _169  and  _170
REMARK   77  A    between atoms: _169  and  _172
REMARK   78  A    between atoms: _172  and  _173
REMARK   79  A    between atoms: _173  and  _174
REMARK   80  A    between atoms: _177  and  _179
REMARK   81  A    between atoms: _179  and  _180
REMARK   82  A    between atoms: _179  and  _182
REMARK   83  A    between atoms: _182  and  _183
REMARK   84  A    between atoms: _185  and  _187
REMARK   85  A    between atoms: _187  and  _188
REMARK   86  A    between atoms: _187  and  _190
REMARK   87  A    between atoms: _190  and  _191
REMARK   88  A    between atoms: _194  and  _196
REMARK   89  A    between atoms: _196  and  _197
REMARK   90  A    between atoms: _196  and  _199
REMARK   91  A    between atoms: _199  and  _200
REMARK   92  A    between atoms: _203  and  _205
REMARK   93  A    between atoms: _205  and  _206
REMARK   94  A    between atoms: _205  and  _208
REMARK   95  A    between atoms: _208  and  _209
REMARK   96  A    between atoms: _212  and  _214
REMARK   97  A    between atoms: _214  and  _215
REMARK   98  A    between atoms: _218  and  _220
REMARK   99  A    between atoms: _220  and  _221
REMARK  100  A    between atoms: _220  and  _223
REMARK  101  A    between atoms: _223  and  _224
REMARK  102  A    between atoms: _227  and  _229
REMARK  103  A    between atoms: _229  and  _230
REMARK  104  A    between atoms: _229  and  _232
REMARK  105  A    between atoms: _232  and  _233
REMARK  106  A    between atoms: _233  and  _234
REMARK  107  A    between atoms: _234  and  _235
REMARK  108  A    between atoms: _235  and  _236
REMARK  109  A    between atoms: _240  and  _242
REMARK  110  A    between atoms: _242  and  _243
REMARK  111  A    between atoms: _242  and  _245
REMARK  112  A    between atoms: _245  and  _246
REMARK  113  A    between atoms: _251  and  _252
REMARK  114  A    between atoms: _254  and  _256
REMARK  115  A    between atoms: _256  and  _257
REMARK  116  A    between atoms: _260  and  _262
REMARK  117  A    between atoms: _262  and  _263
REMARK  118  A    between atoms: _262  and  _265
REMARK  119  A    between atoms: _267  and  _269
REMARK  120  A    between atoms: _269  and  _270
REMARK  121  A    between atoms: _269  and  _272
REMARK  122  A    between atoms: _272  and  _273
REMARK  123  A    between atoms: _279  and  _281
REMARK  124  A    between atoms: _281  and  _282
REMARK  125  A    between atoms: _281  and  _284
REMARK  126  A    between atoms: _287  and  _289
REMARK  127  A    between atoms: _289  and  _290
REMARK  128  A    between atoms: _289  and  _292
REMARK  129  A    between atoms: _292  and  _293
REMARK  130  A    between atoms: _293  and  _294
REMARK  131  A    between atoms: _296  and  _298
REMARK  132  A    between atoms: _298  and  _299
REMARK  133  A    between atoms: _298  and  _301
REMARK  134  A    between atoms: _301  and  _302
REMARK  135  A    between atoms: _302  and  _303
REMARK  136  A    between atoms: _306  and  _308
REMARK  137  A    between atoms: _308  and  _309
REMARK  138  A    between atoms: _308  and  _311
REMARK  139  A    between atoms: _311  and  _312
REMARK  140  A    between atoms: _317  and  _318
REMARK  141  A    between atoms: _320  and  _322
REMARK  142  A    between atoms: _322  and  _323
REMARK  143  A    between atoms: _326  and  _328
REMARK  144  A    between atoms: _328  and  _329
REMARK  145  A    between atoms: _328  and  _331
REMARK  146  A    between atoms: _331  and  _332
REMARK  147  A    between atoms: _337  and  _339
REMARK  148  A    between atoms: _339  and  _340
REMARK  149  A    between atoms: _342  and  _344
REMARK  150  A    between atoms: _344  and  _345
REMARK  151  A    between atoms: _347  and  _349
REMARK  152  A    between atoms: _349  and  _350
REMARK  153  A    between atoms: _349  and  _352
REMARK  154  A    between atoms: _352  and  _353
REMARK  155  A    between atoms: _353  and  _354
REMARK  156  A    between atoms: _357  and  _359
REMARK  157  A    between atoms: _359  and  _360
REMARK  158  A    between atoms: _359  and  _362
REMARK  159  A    between atoms: _362  and  _363
REMARK  160  A    between atoms: _369  and  _371
REMARK  161  A    between atoms: _371  and  _372
REMARK  162  A    between atoms: _371  and  _374
REMARK  163  A    between atoms: _374  and  _375
REMARK  164  A    between atoms: _381  and  _383
REMARK  165  A    between atoms: _383  and  _384
REMARK  166  A    between atoms: _383  and  _386
REMARK  167  A    between atoms: _386  and  _387
REMARK  168  A    between atoms: _392  and  _393
REMARK  169  A    between atoms: _395  and  _397
REMARK  170  A    between atoms: _397  and  _398
REMARK  171  A    between atoms: _397  and  _400
REMARK  172  A    between atoms: _400  and  _401
REMARK  173  A    between atoms: _404  and  _406
REMARK  174  A    between atoms: _406  and  _407
REMARK  175  A    between atoms: _406  and  _409
REMARK  176  A    between atoms: _409  and  _410
REMARK  177  A    between atoms: _410  and  _411
REMARK  178  A    between atoms: _411  and  _412
REMARK  179  A    between atoms: _412  and  _413
REMARK  180  A    between atoms: _417  and  _419
REMARK  181  A    between atoms: _419  and  _420
REMARK  182  A    between atoms: _419  and  _422
REMARK  183  A    between atoms: _422  and  _423
REMARK  184  A    between atoms: _426  and  _428
REMARK  185  A    between atoms: _428  and  _429
REMARK  186  A    between atoms: _428  and  _431
REMARK  187  A    between atoms: _431  and  _432
REMARK  188  A    between atoms: _432  and  _433
REMARK  189  A    between atoms: _436  and  _438
REMARK  190  A    between atoms: _438  and  _439
REMARK  191  A    between atoms: _438  and  _441
REMARK  192  A    between atoms: _441  and  _442
REMARK  193  A    between atoms: _447  and  _449
REMARK  194  A    between atoms: _449  and  _450
REMARK  195  A    between atoms: _449  and  _452
REMARK  196  A    between atoms: _452  and  _453
REMARK  197  A    between atoms: _456  and  _458
REMARK  198  A    between atoms: _458  and  _459
REMARK  199  A    between atoms: _458  and  _461
REMARK  200  A    between atoms: _461  and  _462
REMARK  201  A    between atoms: _462  and  _463
REMARK  202  A    between atoms: _465  and  _467
REMARK  203  A    between atoms: _467  and  _468
REMARK  204  A    between atoms: _467  and  _470
REMARK  205  A    between atoms: _470  and  _471
REMARK  206  A    between atoms: _474  and  _476
REMARK  207  A    between atoms: _476  and  _477
REMARK  208  A    between atoms: _476  and  _479
REMARK  209  A    between atoms: _479  and  _480
REMARK  210  A    between atoms: _480  and  _481
REMARK  211  A    between atoms: _481  and  _482
REMARK  212  A    between atoms: _482  and  _483
REMARK  213  A    between atoms: _487  and  _489
REMARK  214  A    between atoms: _489  and  _490
REMARK  215  A    between atoms: _489  and  _492
REMARK  216  A    between atoms: _492  and  _493
REMARK  217  A    between atoms: _496  and  _498
REMARK  218  A    between atoms: _498  and  _499
REMARK  219  A    between atoms: _498  and  _501
REMARK  220  A    between atoms: _501  and  _502
REMARK  221  A    between atoms: _505  and  _507
REMARK  222  A    between atoms: _507  and  _508
REMARK  223  A    between atoms: _507  and  _510
REMARK  224  A    between atoms: _510  and  _511
REMARK  225  A    between atoms: _514  and  _516
REMARK  226  A    between atoms: _516  and  _517
REMARK  227  A    between atoms: _516  and  _519
REMARK  228  A    between atoms: _519  and  _520
REMARK  229  A    between atoms: _526  and  _528
REMARK  230  A    between atoms: _528  and  _529
REMARK  231  A    between atoms: _531  and  _533
REMARK  232  A    between atoms: _533  and  _534
REMARK  233  A    between atoms: _533  and  _536
REMARK  234  A    between atoms: _536  and  _537
REMARK  235  A    between atoms: _540  and  _542
REMARK  236  A    between atoms: _542  and  _543
REMARK  237  A    between atoms: _542  and  _545
REMARK  238  A    between atoms: _547  and  _549
REMARK  239  A    between atoms: _549  and  _550
REMARK  240  A    between atoms: _549  and  _552
REMARK  241  A    between atoms: _552  and  _553
REMARK  242  A    between atoms: _559  and  _561
REMARK  243  A    between atoms: _561  and  _562
REMARK  244  A    between atoms: _561  and  _564
REMARK  245  A    between atoms: _564  and  _565
REMARK  246  A    between atoms: _568  and  _570
REMARK  247  A    between atoms: _570  and  _571
REMARK  248  A    between atoms: _570  and  _573
REMARK  249  A    between atoms: _573  and  _574
REMARK  250  A    between atoms: _574  and  _575
REMARK  251  A    between atoms: _578  and  _580
REMARK  252  A    between atoms: _580  and  _581
REMARK  253  A    between atoms: _580  and  _583
REMARK  254  A    between atoms: _583  and  _584
REMARK  255  A    between atoms: _590  and  _592
REMARK  256  A    between atoms: _592  and  _593
REMARK  257  A    between atoms: _592  and  _595
REMARK  258  A    between atoms: _595  and  _596
REMARK                            x       y       z     vdW  Elec       q    Type
REMARK                         _______ _______ _______ _____ _____    ______ ____
ROOT
ATOM      1  C   LEU A   4      26.805  -7.671   3.202  0.00  0.00    +0.241 C 
ATOM      2  N   LYS A   5      27.668  -7.754   4.211  0.00  0.00    -0.297 N 
ATOM      3  H   LYS A   5      27.628  -8.586   4.834  0.00  0.00    +0.150 HD
ATOM      4  O   LEU A   4      26.744  -6.704   2.451  0.00  0.00    -0.273 OA
ENDROOT
BRANCH   2   5
ATOM      5  CA  LYS A   5      28.678  -6.718   4.484  0.00  0.00    +0.149 C 
BRANCH   5   6
ATOM      6  C   LYS A   5      29.961  -6.994   3.687  0.00  0.00    +0.241 C 
ATOM      7  N   TYR A   6      30.542  -8.179   3.877  0.00  0.00    -0.297 N 
ATOM      8  H   TYR A   6      30.147  -8.817   4.597  0.00  0.00    +0.150 HD
ATOM      9  O   LYS A   5      30.409  -6.144   2.916  0.00  0.00    -0.273 OA
BRANCH   7  10
ATOM     10  CA  TYR A   6      31.712  -8.620   3.115  0.00  0.00    +0.153 C 
BRANCH  10  11
ATOM     11  C   TYR A   6      31.560 -10.054   2.612  0.00  0.00    +0.241 C 
ATOM     12  O   TYR A   6      30.959 -10.907   3.280  0.00  0.00    -0.273 OA
ATOM     13  N   ALA A   7      32.130 -10.310   1.439  0.00  0.00    -0.298 N 
ATOM     14  H   ALA A   7      32.332  -9.518   0.796  0.00  0.00    +0.150 HD
BRANCH  13  15
ATOM     15  CA  ALA A   7      32.483 -11.663   1.021  0.00  0.00    +0.137 C 
ATOM     16  CB  ALA A   7      31.769 -12.037  -0.264  0.00  0.00    +0.030 C 
BRANCH  15  17
ATOM     17  C   ALA A   7      34.000 -11.700   0.826  0.00  0.00    +0.227 C 
ATOM     18  O   ALA A   7      34.547 -10.904   0.064  0.00  0.00    -0.286 OA
ENDBRANCH  15  17
ENDBRANCH  13  15
ENDBRANCH  10  11
BRANCH  10  19
ATOM     19  CB  TYR A   6      32.990  -8.609   3.965  0.00  0.00    +0.055 C 
BRANCH  19  20
ATOM     20  CG  TYR A   6      33.292  -7.352   4.748  0.00  0.00    -0.020 A 
ATOM     21  CD2 TYR A   6      33.292  -7.366   6.140  0.00  0.00    -0.001 A 
ATOM     22  CE2 TYR A   6      33.591  -6.228   6.868  0.00  0.00    +0.036 A 
ATOM     23  CZ  TYR A   6      33.914  -5.059   6.211  0.00  0.00    +0.134 A 
ATOM     24  CE1 TYR A   6      33.938  -5.017   4.830  0.00  0.00    +0.036 A 
ATOM     25  CD1 TYR A   6      33.638  -6.167   4.104  0.00  0.00    -0.001 A 
BRANCH  23  26
ATOM     26  OH  TYR A   6      34.213  -3.929   6.941  0.00  0.00    -0.506 OA
ATOM     27  HH  TYR A   6      34.997  -4.109   7.519  0.00  0.00    +0.292 HD
ENDBRANCH  23  26
ENDBRANCH  19  20
ENDBRANCH  10  19
ENDBRANCH   7  10
ENDBRANCH   5   6
BRANCH   5  28
ATOM     28  CB  LYS A   5      28.962  -6.660   5.990  0.00  0.00    +0.029 C 
BRANCH  28  29
ATOM     29  CG  LYS A   5      30.080  -5.715   6.428  0.00  0.00    +0.000 C 
BRANCH  29  30
ATOM     30  CD  LYS A   5      29.677  -4.249   6.365  0.00  0.00    -0.024 C 
BRANCH  30  31
ATOM     31  CE  LYS A   5      30.710  -3.375   7.078  0.00  0.00    -0.086 C 
BRANCH  31  32
ATOM     32  NZ  LYS A   5      30.356  -1.921   7.091  0.00  0.00    +0.380 N 
ATOM     33  HZ1 LYS A   5      31.098  -1.389   7.589  0.00  0.00    -0.089 HD
ATOM     34  HZ2 LYS A   5      29.447  -1.791   7.580  0.00  0.00    -0.089 HD
ATOM     35  HZ3 LYS A   5      30.277  -1.576   6.113  0.00  0.00    -0.089 HD
ENDBRANCH  31  32
ENDBRANCH  30  31
ENDBRANCH  29  30
ENDBRANCH  28  29
ENDBRANCH   5  28
ENDBRANCH   2   5
BRANCH   1  36
ATOM     36  CA  LEU A   4      25.879  -8.872   2.992  0.00  0.00    +0.149 C 
BRANCH  36  39
ATOM     37  C   ALA A   3      23.723  -8.309   4.016  0.00  0.00    +0.241 C 
ATOM     38  O   ALA A   3      24.093  -8.622   5.153  0.00  0.00    -0.273 OA
ATOM     39  N   LEU A   4      24.490  -8.429   2.935  0.00  0.00    -0.297 N 
ATOM     40  H   LEU A   4      24.081  -8.196   2.008  0.00  0.00    +0.150 HD
BRANCH  37  41
ATOM     41  CA  ALA A   3      22.309  -7.776   3.774  0.00  0.00    +0.149 C 
ATOM     42  CB  ALA A   3      22.201  -6.322   4.197  0.00  0.00    +0.031 C 
BRANCH  41  44
ATOM     43  C   THR A   2      20.757  -9.642   3.930  0.00  0.00    +0.243 C 
ATOM     44  N   ALA A   3      21.337  -8.589   4.494  0.00  0.00    -0.297 N 
ATOM     45  H   ALA A   3      21.092  -8.338   5.473  0.00  0.00    +0.150 HD
ATOM     46  O   THR A   2      20.991  -9.995   2.774  0.00  0.00    -0.273 OA
BRANCH  43  47
ATOM     47  CA  THR A   2      19.736 -10.399   4.785  0.00  0.00    +0.176 C 
BRANCH  47  49
ATOM     48  C   LEU A   1      17.808  -9.624   3.516  0.00  0.00    +0.238 C 
ATOM     49  N   THR A   2      18.516 -10.637   4.011  0.00  0.00    -0.295 N 
ATOM     50  H   THR A   2      18.197 -11.613   3.845  0.00  0.00    +0.150 HD
ATOM     51  O   LEU A   1      18.116  -8.443   3.708  0.00  0.00    -0.274 OA
BRANCH  48  52
ATOM     52  CA  LEU A   1      16.575  -9.982   2.681  0.00  0.00    +0.145 C 
BRANCH  52  53
ATOM     53  N   LEU A   1      15.452  -9.139   3.092  0.00  0.00    -0.238 NA
ATOM     54  H   LEU A   1      15.472  -8.125   2.861  0.00  0.00    +0.142 HD
ENDBRANCH  52  53
BRANCH  52  55
ATOM     55  CB  LEU A   1      16.886  -9.814   1.187  0.00  0.00    +0.026 C 
BRANCH  55  56
ATOM     56  CG  LEU A   1      15.765 -10.067   0.175  0.00  0.00    +0.002 C 
ATOM     57  CD2 LEU A   1      15.289 -11.526   0.209  0.00  0.00    +0.000 C 
ATOM     58  CD1 LEU A   1      16.237  -9.672  -1.227  0.00  0.00    +0.000 C 
ENDBRANCH  55  56
ENDBRANCH  52  55
ENDBRANCH  48  52
ENDBRANCH  47  49
BRANCH  47  59
ATOM     59  CB  THR A   2      20.369 -11.705   5.293  0.00  0.00    +0.137 C 
ATOM     60  CG2 THR A   2      21.592 -11.403   6.147  0.00  0.00    +0.034 C 
BRANCH  59  61
ATOM     61  OG1 THR A   2      19.414 -12.440   6.072  0.00  0.00    -0.382 OA
ATOM     62  HG1 THR A   2      18.627 -12.655   5.511  0.00  0.00    +0.210 HD
ENDBRANCH  59  61
ENDBRANCH  47  59
ENDBRANCH  43  47
ENDBRANCH  41  44
ENDBRANCH  37  41
ENDBRANCH  36  39
BRANCH  36  63
ATOM     63  CB  LEU A   4      26.254  -9.583   1.687  0.00  0.00    +0.029 C 
BRANCH  63  64
ATOM     64  CG  LEU A   4      27.645 -10.222   1.610  0.00  0.00    +0.002 C 
ATOM     65  CD2 LEU A   4      27.728 -11.430   2.526  0.00  0.00    +0.000 C 
ATOM     66  CD1 LEU A   4      28.002 -10.601   0.179  0.00  0.00    +0.000 C 
ENDBRANCH  63  64
ENDBRANCH  36  63
ENDBRANCH   1  36
TORSDOF 28
REMARK  Name = ../refined-set-2016/3d0e/3d0e_pocket.pdb
REMARK  258 active torsions:
REMARK  status: ('A' for Active; 'I' for Inactive)
REMARK    1  A    between atoms: _1  and  _3
REMARK    2  A    between atoms: _3  and  _4
REMARK    3  A    between atoms: _3  and  _6
REMARK    4  A    between atoms: _6  and  _7
REMARK    5  A    between atoms: _10  and  _12
REMARK    6  A    between atoms: _12  and  _13
REMARK    7  A    between atoms: _12  and  _15
REMARK    8  A    between atoms: _15  and  _16
REMARK    9  A    between atoms: _19  and  _21
REMARK   10  A    between atoms: _21  and  _22
REMARK   11  A    between atoms: _24  and  _26
REMARK   12  A    between atoms: _26  and  _27
REMARK   13  A    between atoms: _26  and  _29
REMARK   14  A    between atoms: _29  and  _30
REMARK   15  A    between atoms: _30  and  _31
REMARK   16  A    between atoms: _31  and  _32
REMARK   17  A    between atoms: _32  and  _33
REMARK   18  A    between atoms: _37  and  _39
REMARK   19  A    between atoms: _39  and  _40
REMARK   20  A    between atoms: _42  and  _44
REMARK   21  A    between atoms: _44  and  _45
REMARK   22  A    between atoms: _44  and  _47
REMARK   23  A    between atoms: _47  and  _48
REMARK   24  A    between atoms: _51  and  _53
REMARK   25  A    between atoms: _53  and  _54
REMARK   26  A    between atoms: _53  and  _56
REMARK   27  A    between atoms: _56  and  _57
REMARK   28  A    between atoms: _63  and  _65
REMARK   29  A    between atoms: _65  and  _66
REMARK   30  A    between atoms: _68  and  _70
REMARK   31  A    between atoms: _70  and  _71
REMARK   32  A    between atoms: _70  and  _73
REMARK   33  A    between atoms: _73  and  _74
REMARK   34  A    between atoms: _74  and  _75
REMARK   35  A    between atoms: _75  and  _76
REMARK   36  A    between atoms: _76  and  _77
REMARK   37  A    between atoms: _81  and  _83
REMARK   38  A    between atoms: _83  and  _84
REMARK   39  A    between atoms: _83  and  _86
REMARK   40  A    between atoms: _89  and  _91
REMARK   41  A    between atoms: _91  and  _92
REMARK   42  A    between atoms: _91  and  _94
REMARK   43  A    between atoms: _94  and  _95
REMARK   44  A    between atoms: _98  and  _100
REMARK   45  A    between atoms: _100  and  _101
REMARK   46  A    between atoms: _100  and  _103
REMARK   47  A    between atoms: _103  and  _104
REMARK   48  A    between atoms: _107  and  _109
REMARK   49  A    between atoms: _109  and  _110
REMARK   50  A    between atoms: _109  and  _112
REMARK   51  A    between atoms: _112  and  _113
REMARK   52  A    between atoms: _118  and  _119
REMARK   53  A    between atoms: _121  and  _123
REMARK   54  A    between atoms: _123  and  _124
REMARK   55  A    between atoms: _127  and  _129
REMARK   56  A    between atoms: _129  and  _130
REMARK   57  A    between atoms: _129  and  _132
REMARK   58  A    between atoms: _132  and  _133
REMARK   59  A    between atoms: _133  and  _134
REMARK   60  A    between atoms: _136  and  _138
REMARK   61  A    between atoms: _138  and  _139
REMARK   62  A    between atoms: _138  and  _141
REMARK   63  A    between atoms: _141  and  _142
REMARK   64  A    between atoms: _142  and  _143
REMARK   65  A    between atoms: _143  and  _144
REMARK   66  A    between atoms: _144  and  _145
REMARK   67  A    between atoms: _149  and  _151
REMARK   68  A    between atoms: _151  and  _152
REMARK   69  A    between atoms: _151  and  _154
REMARK   70  A    between atoms: _154  and  _155
REMARK   71  A    between atoms: _158  and  _160
REMARK   72  A    between atoms: _160  and  _161
REMARK   73  A    between atoms: _160  and  _163
REMARK   74  A    between atoms: _163  and  _164
REMARK   75  A    between atoms: _167  and  _169
REMARK   76  A    between atoms: _169  and  _170
REMARK   77  A    between atoms: _169  and  _172
REMARK   78  A    between atoms: _172  and  _173
REMARK   79  A    between atoms: _173  and  _174
REMARK   80  A    between atoms: _177  and  _179
REMARK   81  A    between atoms: _179  and  _180
REMARK   82  A    between atoms: _179  and  _182
REMARK   83  A    between atoms: _182  and  _183
REMARK   84  A    between atoms: _185  and  _187
REMARK   85  A    between atoms: _187  and  _188
REMARK   86  A    between atoms: _187  and  _190
REMARK   87  A    between atoms: _190  and  _191
REMARK   88  A    between atoms: _194  and  _196
REMARK   89  A    between atoms: _196  and  _197
REMARK   90  A    between atoms: _196  and  _199
REMARK   91  A    between atoms: _199  and  _200
REMARK   92  A    between atoms: _203  and  _205
REMARK   93  A    between atoms: _205  and  _206
REMARK   94  A    between atoms: _205  and  _208
REMARK   95  A    between atoms: _208  and  _209
REMARK   96  A    between atoms: _212  and  _214
REMARK   97  A    between atoms: _214  and  _215
REMARK   98  A    between atoms: _218  and  _220
REMARK   99  A    between atoms: _220  and  _221
REMARK  100  A    between atoms: _220  and  _223
REMARK  101  A    between atoms: _223  and  _224
REMARK  102  A    between atoms: _227  and  _229
REMARK  103  A    between atoms: _229  and  _230
REMARK  104  A    between atoms: _229  and  _232
REMARK  105  A    between atoms: _232  and  _233
REMARK  106  A    between atoms: _233  and  _234
REMARK  107  A    between atoms: _234  and  _235
REMARK  108  A    between atoms: _235  and  _236
REMARK  109  A    between atoms: _240  and  _242
REMARK  110  A    between atoms: _242  and  _243
REMARK  111  A    between atoms: _242  and  _245
REMARK  112  A    between atoms: _245  and  _246
REMARK  113  A    between atoms: _251  and  _252
REMARK  114  A    between atoms: _254  and  _256
REMARK  115  A    between atoms: _256  and  _257
REMARK  116  A    between atoms: _260  and  _262
REMARK  117  A    between atoms: _262  and  _263
REMARK  118  A    between atoms: _262  and  _265
REMARK  119  A    between atoms: _267  and  _269
REMARK  120  A    between atoms: _269  and  _270
REMARK  121  A    between atoms: _269  and  _272
REMARK  122  A    between atoms: _272  and  _273
REMARK  123  A    between atoms: _279  and  _281
REMARK  124  A    between atoms: _281  and  _282
REMARK  125  A    between atoms: _281  and  _284
REMARK  126  A    between atoms: _287  and  _289
REMARK  127  A    between atoms: _289  and  _290
REMARK  128  A    between atoms: _289  and  _292
REMARK  129  A    between atoms: _292  and  _293
REMARK  130  A    between atoms: _293  and  _294
REMARK  131  A    between atoms: _296  and  _298
REMARK  132  A    between atoms: _298  and  _299
REMARK  133  A    between atoms: _298  and  _301
REMARK  134  A    between atoms: _301  and  _302
REMARK  135  A    between atoms: _302  and  _303
REMARK  136  A    between atoms: _306  and  _308
REMARK  137  A    between atoms: _308  and  _309
REMARK  138  A    between atoms: _308  and  _311
REMARK  139  A    between atoms: _311  and  _312
REMARK  140  A    between atoms: _317  and  _318
REMARK  141  A    between atoms: _320  and  _322
REMARK  142  A    between atoms: _322  and  _323
REMARK  143  A    between atoms: _326  and  _328
REMARK  144  A    between atoms: _328  and  _329
REMARK  145  A    between atoms: _328  and  _331
REMARK  146  A    between atoms: _331  and  _332
REMARK  147  A    between atoms: _337  and  _339
REMARK  148  A    between atoms: _339  and  _340
REMARK  149  A    between atoms: _342  and  _344
REMARK  150  A    between atoms: _344  and  _345
REMARK  151  A    between atoms: _347  and  _349
REMARK  152  A    between atoms: _349  and  _350
REMARK  153  A    between atoms: _349  and  _352
REMARK  154  A    between atoms: _352  and  _353
REMARK  155  A    between atoms: _353  and  _354
REMARK  156  A    between atoms: _357  and  _359
REMARK  157  A    between atoms: _359  and  _360
REMARK  158  A    between atoms: _359  and  _362
REMARK  159  A    between atoms: _362  and  _363
REMARK  160  A    between atoms: _369  and  _371
REMARK  161  A    between atoms: _371  and  _372
REMARK  162  A    between atoms: _371  and  _374
REMARK  163  A    between atoms: _374  and  _375
REMARK  164  A    between atoms: _381  and  _383
REMARK  165  A    between atoms: _383  and  _384
REMARK  166  A    between atoms: _383  and  _386
REMARK  167  A    between atoms: _386  and  _387
REMARK  168  A    between atoms: _392  and  _393
REMARK  169  A    between atoms: _395  and  _397
REMARK  170  A    between atoms: _397  and  _398
REMARK  171  A    between atoms: _397  and  _400
REMARK  172  A    between atoms: _400  and  _401
REMARK  173  A    between atoms: _404  and  _406
REMARK  174  A    between atoms: _406  and  _407
REMARK  175  A    between atoms: _406  and  _409
REMARK  176  A    between atoms: _409  and  _410
REMARK  177  A    between atoms: _410  and  _411
REMARK  178  A    between atoms: _411  and  _412
REMARK  179  A    between atoms: _412  and  _413
REMARK  180  A    between atoms: _417  and  _419
REMARK  181  A    between atoms: _419  and  _420
REMARK  182  A    between atoms: _419  and  _422
REMARK  183  A    between atoms: _422  and  _423
REMARK  184  A    between atoms: _426  and  _428
REMARK  185  A    between atoms: _428  and  _429
REMARK  186  A    between atoms: _428  and  _431
REMARK  187  A    between atoms: _431  and  _432
REMARK  188  A    between atoms: _432  and  _433
REMARK  189  A    between atoms: _436  and  _438
REMARK  190  A    between atoms: _438  and  _439
REMARK  191  A    between atoms: _438  and  _441
REMARK  192  A    between atoms: _441  and  _442
REMARK  193  A    between atoms: _447  and  _449
REMARK  194  A    between atoms: _449  and  _450
REMARK  195  A    between atoms: _449  and  _452
REMARK  196  A    between atoms: _452  and  _453
REMARK  197  A    between atoms: _456  and  _458
REMARK  198  A    between atoms: _458  and  _459
REMARK  199  A    between atoms: _458  and  _461
REMARK  200  A    between atoms: _461  and  _462
REMARK  201  A    between atoms: _462  and  _463
REMARK  202  A    between atoms: _465  and  _467
REMARK  203  A    between atoms: _467  and  _468
REMARK  204  A    between atoms: _467  and  _470
REMARK  205  A    between atoms: _470  and  _471
REMARK  206  A    between atoms: _474  and  _476
REMARK  207  A    between atoms: _476  and  _477
REMARK  208  A    between atoms: _476  and  _479
REMARK  209  A    between atoms: _479  and  _480
REMARK  210  A    between atoms: _480  and  _481
REMARK  211  A    between atoms: _481  and  _482
REMARK  212  A    between atoms: _482  and  _483
REMARK  213  A    between atoms: _487  and  _489
REMARK  214  A    between atoms: _489  and  _490
REMARK  215  A    between atoms: _489  and  _492
REMARK  216  A    between atoms: _492  and  _493
REMARK  217  A    between atoms: _496  and  _498
REMARK  218  A    between atoms: _498  and  _499
REMARK  219  A    between atoms: _498  and  _501
REMARK  220  A    between atoms: _501  and  _502
REMARK  221  A    between atoms: _505  and  _507
REMARK  222  A    between atoms: _507  and  _508
REMARK  223  A    between atoms: _507  and  _510
REMARK  224  A    between atoms: _510  and  _511
REMARK  225  A    between atoms: _514  and  _516
REMARK  226  A    between atoms: _516  and  _517
REMARK  227  A    between atoms: _516  and  _519
REMARK  228  A    between atoms: _519  and  _520
REMARK  229  A    between atoms: _526  and  _528
REMARK  230  A    between atoms: _528  and  _529
REMARK  231  A    between atoms: _531  and  _533
REMARK  232  A    between atoms: _533  and  _534
REMARK  233  A    between atoms: _533  and  _536
REMARK  234  A    between atoms: _536  and  _537
REMARK  235  A    between atoms: _540  and  _542
REMARK  236  A    between atoms: _542  and  _543
REMARK  237  A    between atoms: _542  and  _545
REMARK  238  A    between atoms: _547  and  _549
REMARK  239  A    between atoms: _549  and  _550
REMARK  240  A    between atoms: _549  and  _552
REMARK  241  A    between atoms: _552  and  _553
REMARK  242  A    between atoms: _559  and  _561
REMARK  243  A    between atoms: _561  and  _562
REMARK  244  A    between atoms: _561  and  _564
REMARK  245  A    between atoms: _564  and  _565
REMARK  246  A    between atoms: _568  and  _570
REMARK  247  A    between atoms: _570  and  _571
REMARK  248  A    between atoms: _570  and  _573
REMARK  249  A    between atoms: _573  and  _574
REMARK  250  A    between atoms: _574  and  _575
REMARK  251  A    between atoms: _578  and  _580
REMARK  252  A    between atoms: _580  and  _581
REMARK  253  A    between atoms: _580  and  _583
REMARK  254  A    between atoms: _583  and  _584
REMARK  255  A    between atoms: _590  and  _592
REMARK  256  A    between atoms: _592  and  _593
REMARK  257  A    between atoms: _592  and  _595
REMARK  258  A    between atoms: _595  and  _596
REMARK                            x       y       z     vdW  Elec       q    Type
REMARK                         _______ _______ _______ _____ _____    ______ ____
ROOT
ATOM      1  CA  TYR A   6      23.139 -10.901  12.584  0.00  0.00    +0.153 C 
ENDROOT
BRANCH   1   2
ATOM      2  C   TYR A   6      21.641 -10.752  12.848  0.00  0.00    +0.241 C 
ATOM      3  O   TYR A   6      21.177  -9.693  13.275  0.00  0.00    -0.273 OA
ATOM      4  N   ALA A   7      20.887 -11.808  12.554  0.00  0.00    -0.297 N 
ATOM      5  H   ALA A   7      21.334 -12.642  12.121  0.00  0.00    +0.150 HD
BRANCH   4   6
ATOM      6  CA  ALA A   7      19.455 -11.832  12.820  0.00  0.00    +0.149 C 
ATOM      7  CB  ALA A   7      18.752 -12.806  11.880  0.00  0.00    +0.031 C 
BRANCH   6   8
ATOM      8  C   ALA A   7      19.260 -12.245  14.276  0.00  0.00    +0.241 C 
ATOM      9  N   ASN A   8      19.205 -11.251  15.163  0.00  0.00    -0.297 N 
ATOM     10  H   ASN A   8      19.203 -10.272  14.813  0.00  0.00    +0.150 HD
ATOM     11  O   ALA A   7      19.170 -13.429  14.579  0.00  0.00    -0.273 OA
BRANCH   9  12
ATOM     12  CA  ASN A   8      19.147 -11.478  16.616  0.00  0.00    +0.158 C 
BRANCH  12  13
ATOM     13  C   ASN A   8      17.972 -12.353  17.060  0.00  0.00    +0.241 C 
ATOM     14  O   ASN A   8      18.054 -13.024  18.084  0.00  0.00    -0.273 OA
ATOM     15  N   GLY A   9      16.875 -12.312  16.306  0.00  0.00    -0.295 N 
ATOM     16  H   GLY A   9      16.888 -11.746  15.434  0.00  0.00    +0.150 HD
BRANCH  15  17
ATOM     17  CA  GLY A   9      15.654 -13.032  16.657  0.00  0.00    +0.176 C 
BRANCH  17  18
ATOM     18  C   GLY A   9      15.611 -14.517  16.323  0.00  0.00    +0.243 C 
ATOM     19  O   GLY A   9      14.612 -15.174  16.605  0.00  0.00    -0.273 OA
ATOM     20  N   GLY A  10      16.674 -15.052  15.724  0.00  0.00    -0.295 N 
ATOM     21  H   GLY A  10      17.489 -14.444  15.504  0.00  0.00    +0.150 HD
BRANCH  20  22
ATOM     22  CA  GLY A  10      16.728 -16.476  15.365  0.00  0.00    +0.176 C 
BRANCH  22  23
ATOM     23  C   GLY A  10      15.804 -16.876  14.216  0.00  0.00    +0.243 C 
ATOM     24  N   GLU A  11      15.709 -18.190  13.991  0.00  0.00    -0.298 N 
ATOM     25  H   GLU A  11      16.258 -18.826  14.605  0.00  0.00    +0.150 HD
ATOM     26  O   GLY A  10      15.205 -16.017  13.561  0.00  0.00    -0.273 OA
BRANCH  24  27
ATOM     27  CA  GLU A  11      14.888 -18.799  12.943  0.00  0.00    +0.137 C 
BRANCH  27  28
ATOM     28  C   GLU A  11      13.436 -18.940  13.364  0.00  0.00    +0.227 C 
ATOM     29  O   GLU A  11      13.154 -19.190  14.535  0.00  0.00    -0.286 OA
ENDBRANCH  27  28
BRANCH  27  30
ATOM     30  CB  GLU A  11      15.359 -20.235  12.668  0.00  0.00    +0.039 C 
BRANCH  30  31
ATOM     31  CG  GLU A  11      16.755 -20.385  12.150  0.00  0.00    +0.116 C 
BRANCH  31  32
ATOM     32  CD  GLU A  11      17.261 -21.823  12.239  0.00  0.00    +0.365 C 
ATOM     33  OE2 GLU A  11      16.454 -22.751  12.469  0.00  0.00    -0.246 OA
ATOM     34  OE1 GLU A  11      18.478 -22.019  12.078  0.00  0.00    -0.246 OA
ENDBRANCH  31  32
ENDBRANCH  30  31
ENDBRANCH  27  30
ENDBRANCH  24  27
ENDBRANCH  22  23
ENDBRANCH  20  22
ENDBRANCH  17  18
ENDBRANCH  15  17
ENDBRANCH  12  13
BRANCH  12  35
ATOM     35  CB  ASN A   8      19.046 -10.147  17.375  0.00  0.00    +0.114 C 
BRANCH  35  36
ATOM     36  CG  ASN A   8      20.130  -9.163  16.995  0.00  0.00    +0.222 C 
ATOM     37  ND2 ASN A   8      21.023  -8.870  17.934  0.00  0.00    -0.329 N 
ATOM     38 HD21 ASN A   8      20.965  -9.325  18.867  0.00  0.00    +0.145 HD
ATOM     39 HD22 ASN A   8      21.780  -8.186  17.736  0.00  0.00    +0.145 HD
ATOM     40  OD1 ASN A   8      20.153  -8.654  15.875  0.00  0.00    -0.275 OA
ENDBRANCH  35  36
ENDBRANCH  12  35
ENDBRANCH   9  12
ENDBRANCH   6   8
ENDBRANCH   4   6
ENDBRANCH   1   2
BRANCH   1  42
ATOM     41  C   GLU A   5      23.312 -10.129  10.267  0.00  0.00    +0.241 C 
ATOM     42  N   TYR A   6      23.547  -9.939  11.563  0.00  0.00    -0.297 N 
ATOM     43  H   TYR A   6      24.040  -9.073  11.860  0.00  0.00    +0.150 HD
ATOM     44  O   GLU A   5      22.853 -11.172   9.805  0.00  0.00    -0.273 OA
BRANCH  41  45
ATOM     45  CA  GLU A   5      23.629  -8.959   9.341  0.00  0.00    +0.149 C 
BRANCH  45  48
ATOM     46  C   MET A   4      25.610 -10.021   8.395  0.00  0.00    +0.241 C 
ATOM     47  O   MET A   4      26.090 -10.260   9.504  0.00  0.00    -0.273 OA
ATOM     48  N   GLU A   5      24.452  -9.393   8.218  0.00  0.00    -0.297 N 
ATOM     49  H   GLU A   5      24.123  -9.205   7.249  0.00  0.00    +0.150 HD
BRANCH  46  50
ATOM     50  CA  MET A   4      26.308 -10.470   7.123  0.00  0.00    +0.149 C 
BRANCH  50  52
ATOM     51  C   VAL A   3      28.649 -10.748   6.510  0.00  0.00    +0.241 C 
ATOM     52  N   MET A   4      27.658 -10.969   7.369  0.00  0.00    -0.297 N 
ATOM     53  H   MET A   4      27.849 -11.510   8.236  0.00  0.00    +0.150 HD
ATOM     54  O   VAL A   3      28.544  -9.998   5.536  0.00  0.00    -0.273 OA
BRANCH  51  55
ATOM     55  CA  VAL A   3      29.963 -11.477   6.784  0.00  0.00    +0.149 C 
BRANCH  55  58
ATOM     56  C   PHE A   2      30.091 -13.606   5.581  0.00  0.00    +0.241 C 
ATOM     57  O   PHE A   2      29.743 -14.251   6.566  0.00  0.00    -0.273 OA
ATOM     58  N   VAL A   3      30.302 -12.292   5.613  0.00  0.00    -0.297 N 
ATOM     59  H   VAL A   3      30.721 -11.829   4.781  0.00  0.00    +0.150 HD
BRANCH  56  60
ATOM     60  CA  PHE A   2      30.275 -14.309   4.244  0.00  0.00    +0.153 C 
BRANCH  60  62
ATOM     61  C   CYS A   1      32.561 -15.147   3.916  0.00  0.00    +0.239 C 
ATOM     62  N   PHE A   2      31.321 -15.314   4.375  0.00  0.00    -0.297 N 
ATOM     63  H   PHE A   2      31.088 -16.209   4.852  0.00  0.00    +0.150 HD
ATOM     64  O   CYS A   1      32.907 -14.208   3.191  0.00  0.00    -0.274 OA
BRANCH  61  65
ATOM     65  CA  CYS A   1      33.564 -16.213   4.345  0.00  0.00    +0.156 C 
BRANCH  65  66
ATOM     66  N   CYS A   1      34.253 -16.830   3.213  0.00  0.00    -0.237 NA
ATOM     67  H   CYS A   1      34.723 -16.223   2.511  0.00  0.00    +0.142 HD
ENDBRANCH  65  66
BRANCH  65  68
ATOM     68  CB  CYS A   1      34.575 -15.607   5.316  0.00  0.00    +0.095 C 
ATOM     69  SG  CYS A   1      35.863 -16.765   5.848  0.00  0.00    -0.080 S 
ENDBRANCH  65  68
ENDBRANCH  61  65
ENDBRANCH  60  62
BRANCH  60  70
ATOM     70  CB  PHE A   2      28.933 -14.954   3.885  0.00  0.00    +0.055 C 
BRANCH  70  71
ATOM     71  CG  PHE A   2      28.919 -15.675   2.570  0.00  0.00    -0.020 A 
ATOM     72  CD2 PHE A   2      29.279 -17.014   2.492  0.00  0.00    -0.004 A 
ATOM     73  CE2 PHE A   2      29.250 -17.684   1.281  0.00  0.00    -0.000 A 
ATOM     74  CZ  PHE A   2      28.839 -17.026   0.137  0.00  0.00    -0.000 A 
ATOM     75  CE1 PHE A   2      28.469 -15.695   0.203  0.00  0.00    -0.000 A 
ATOM     76  CD1 PHE A   2      28.507 -15.027   1.416  0.00  0.00    -0.004 A 
ENDBRANCH  70  71
ENDBRANCH  60  70
ENDBRANCH  56  60
ENDBRANCH  55  58
BRANCH  55  77
ATOM     77  CB  VAL A   3      31.063 -10.455   7.104  0.00  0.00    +0.027 C 
ATOM     78  CG2 VAL A   3      30.655  -9.570   8.286  0.00  0.00    +0.002 C 
ATOM     79  CG1 VAL A   3      32.374 -11.171   7.378  0.00  0.00    +0.002 C 
ENDBRANCH  55  77
ENDBRANCH  51  55
ENDBRANCH  50  52
BRANCH  50  80
ATOM     80  CB  MET A   4      25.471 -11.566   6.467  0.00  0.00    +0.041 C 
BRANCH  80  81
ATOM     81  CG  MET A   4      24.874 -12.533   7.481  0.00  0.00    +0.060 C 
BRANCH  81  82
ATOM     82  SD  MET A   4      24.742 -14.198   6.882  0.00  0.00    -0.139 S 
ATOM     83  CE  MET A   4      26.485 -14.611   6.821  0.00  0.00    +0.069 C 
ENDBRANCH  81  82
ENDBRANCH  80  81
ENDBRANCH  50  80
ENDBRANCH  46  50
ENDBRANCH  45  48
BRANCH  45  84
ATOM     84  CB  GLU A   5      22.304  -8.391   8.840  0.00  0.00    +0.041 C 
BRANCH  84  85
ATOM     85  CG  GLU A   5      22.406  -7.065   8.140  0.00  0.00    +0.116 C 
BRANCH  85  86
ATOM     86  CD  GLU A   5      21.070  -6.611   7.591  0.00  0.00    +0.365 C 
ATOM     87  OE2 GLU A   5      20.724  -5.428   7.795  0.00  0.00    -0.246 OA
ATOM     88  OE1 GLU A   5      20.362  -7.441   6.966  0.00  0.00    -0.246 OA
ENDBRANCH  85  86
ENDBRANCH  84  85
ENDBRANCH  45  84
ENDBRANCH  41  45
ENDBRANCH   1  42
BRANCH   1  89
ATOM     89  CB  TYR A   6      23.952 -10.684  13.864  0.00  0.00    +0.055 C 
BRANCH  89  90
ATOM     90  CG  TYR A   6      23.509 -11.478  15.078  0.00  0.00    -0.020 A 
ATOM     91  CD2 TYR A   6      23.224 -10.830  16.282  0.00  0.00    -0.001 A 
ATOM     92  CE2 TYR A   6      22.839 -11.537  17.409  0.00  0.00    +0.036 A 
ATOM     93  CZ  TYR A   6      22.751 -12.910  17.360  0.00  0.00    +0.134 A 
ATOM     94  CE1 TYR A   6      23.039 -13.589  16.180  0.00  0.00    +0.036 A 
ATOM     95  CD1 TYR A   6      23.425 -12.865  15.046  0.00  0.00    -0.001 A 
BRANCH  93  96
ATOM     96  OH  TYR A   6      22.359 -13.589  18.491  0.00  0.00    -0.506 OA
ATOM     97  HH  TYR A   6      21.454 -13.289  18.758  0.00  0.00    +0.292 HD
ENDBRANCH  93  96
ENDBRANCH  89  90
ENDBRANCH   1  89
TORSDOF 40
REMARK  Name = ../refined-set-2016/3d0e/3d0e_pocket.pdb
REMARK  258 active torsions:
REMARK  status: ('A' for Active; 'I' for Inactive)
REMARK    1  A    between atoms: _1  and  _3
REMARK    2  A    between atoms: _3  and  _4
REMARK    3  A    between atoms: _3  and  _6
REMARK    4  A    between atoms: _6  and  _7
REMARK    5  A    between atoms: _10  and  _12
REMARK    6  A    between atoms: _12  and  _13
REMARK    7  A    between atoms: _12  and  _15
REMARK    8  A    between atoms: _15  and  _16
REMARK    9  A    between atoms: _19  and  _21
REMARK   10  A    between atoms: _21  and  _22
REMARK   11  A    between atoms: _24  and  _26
REMARK   12  A    between atoms: _26  and  _27
REMARK   13  A    between atoms: _26  and  _29
REMARK   14  A    between atoms: _29  and  _30
REMARK   15  A    between atoms: _30  and  _31
REMARK   16  A    between atoms: _31  and  _32
REMARK   17  A    between atoms: _32  and  _33
REMARK   18  A    between atoms: _37  and  _39
REMARK   19  A    between atoms: _39  and  _40
REMARK   20  A    between atoms: _42  and  _44
REMARK   21  A    between atoms: _44  and  _45
REMARK   22  A    between atoms: _44  and  _47
REMARK   23  A    between atoms: _47  and  _48
REMARK   24  A    between atoms: _51  and  _53
REMARK   25  A    between atoms: _53  and  _54
REMARK   26  A    between atoms: _53  and  _56
REMARK   27  A    between atoms: _56  and  _57
REMARK   28  A    between atoms: _63  and  _65
REMARK   29  A    between atoms: _65  and  _66
REMARK   30  A    between atoms: _68  and  _70
REMARK   31  A    between atoms: _70  and  _71
REMARK   32  A    between atoms: _70  and  _73
REMARK   33  A    between atoms: _73  and  _74
REMARK   34  A    between atoms: _74  and  _75
REMARK   35  A    between atoms: _75  and  _76
REMARK   36  A    between atoms: _76  and  _77
REMARK   37  A    between atoms: _81  and  _83
REMARK   38  A    between atoms: _83  and  _84
REMARK   39  A    between atoms: _83  and  _86
REMARK   40  A    between atoms: _89  and  _91
REMARK   41  A    between atoms: _91  and  _92
REMARK   42  A    between atoms: _91  and  _94
REMARK   43  A    between atoms: _94  and  _95
REMARK   44  A    between atoms: _98  and  _100
REMARK   45  A    between atoms: _100  and  _101
REMARK   46  A    between atoms: _100  and  _103
REMARK   47  A    between atoms: _103  and  _104
REMARK   48  A    between atoms: _107  and  _109
REMARK   49  A    between atoms: _109  and  _110
REMARK   50  A    between atoms: _109  and  _112
REMARK   51  A    between atoms: _112  and  _113
REMARK   52  A    between atoms: _118  and  _119
REMARK   53  A    between atoms: _121  and  _123
REMARK   54  A    between atoms: _123  and  _124
REMARK   55  A    between atoms: _127  and  _129
REMARK   56  A    between atoms: _129  and  _130
REMARK   57  A    between atoms: _129  and  _132
REMARK   58  A    between atoms: _132  and  _133
REMARK   59  A    between atoms: _133  and  _134
REMARK   60  A    between atoms: _136  and  _138
REMARK   61  A    between atoms: _138  and  _139
REMARK   62  A    between atoms: _138  and  _141
REMARK   63  A    between atoms: _141  and  _142
REMARK   64  A    between atoms: _142  and  _143
REMARK   65  A    between atoms: _143  and  _144
REMARK   66  A    between atoms: _144  and  _145
REMARK   67  A    between atoms: _149  and  _151
REMARK   68  A    between atoms: _151  and  _152
REMARK   69  A    between atoms: _151  and  _154
REMARK   70  A    between atoms: _154  and  _155
REMARK   71  A    between atoms: _158  and  _160
REMARK   72  A    between atoms: _160  and  _161
REMARK   73  A    between atoms: _160  and  _163
REMARK   74  A    between atoms: _163  and  _164
REMARK   75  A    between atoms: _167  and  _169
REMARK   76  A    between atoms: _169  and  _170
REMARK   77  A    between atoms: _169  and  _172
REMARK   78  A    between atoms: _172  and  _173
REMARK   79  A    between atoms: _173  and  _174
REMARK   80  A    between atoms: _177  and  _179
REMARK   81  A    between atoms: _179  and  _180
REMARK   82  A    between atoms: _179  and  _182
REMARK   83  A    between atoms: _182  and  _183
REMARK   84  A    between atoms: _185  and  _187
REMARK   85  A    between atoms: _187  and  _188
REMARK   86  A    between atoms: _187  and  _190
REMARK   87  A    between atoms: _190  and  _191
REMARK   88  A    between atoms: _194  and  _196
REMARK   89  A    between atoms: _196  and  _197
REMARK   90  A    between atoms: _196  and  _199
REMARK   91  A    between atoms: _199  and  _200
REMARK   92  A    between atoms: _203  and  _205
REMARK   93  A    between atoms: _205  and  _206
REMARK   94  A    between atoms: _205  and  _208
REMARK   95  A    between atoms: _208  and  _209
REMARK   96  A    between atoms: _212  and  _214
REMARK   97  A    between atoms: _214  and  _215
REMARK   98  A    between atoms: _218  and  _220
REMARK   99  A    between atoms: _220  and  _221
REMARK  100  A    between atoms: _220  and  _223
REMARK  101  A    between atoms: _223  and  _224
REMARK  102  A    between atoms: _227  and  _229
REMARK  103  A    between atoms: _229  and  _230
REMARK  104  A    between atoms: _229  and  _232
REMARK  105  A    between atoms: _232  and  _233
REMARK  106  A    between atoms: _233  and  _234
REMARK  107  A    between atoms: _234  and  _235
REMARK  108  A    between atoms: _235  and  _236
REMARK  109  A    between atoms: _240  and  _242
REMARK  110  A    between atoms: _242  and  _243
REMARK  111  A    between atoms: _242  and  _245
REMARK  112  A    between atoms: _245  and  _246
REMARK  113  A    between atoms: _251  and  _252
REMARK  114  A    between atoms: _254  and  _256
REMARK  115  A    between atoms: _256  and  _257
REMARK  116  A    between atoms: _260  and  _262
REMARK  117  A    between atoms: _262  and  _263
REMARK  118  A    between atoms: _262  and  _265
REMARK  119  A    between atoms: _267  and  _269
REMARK  120  A    between atoms: _269  and  _270
REMARK  121  A    between atoms: _269  and  _272
REMARK  122  A    between atoms: _272  and  _273
REMARK  123  A    between atoms: _279  and  _281
REMARK  124  A    between atoms: _281  and  _282
REMARK  125  A    between atoms: _281  and  _284
REMARK  126  A    between atoms: _287  and  _289
REMARK  127  A    between atoms: _289  and  _290
REMARK  128  A    between atoms: _289  and  _292
REMARK  129  A    between atoms: _292  and  _293
REMARK  130  A    between atoms: _293  and  _294
REMARK  131  A    between atoms: _296  and  _298
REMARK  132  A    between atoms: _298  and  _299
REMARK  133  A    between atoms: _298  and  _301
REMARK  134  A    between atoms: _301  and  _302
REMARK  135  A    between atoms: _302  and  _303
REMARK  136  A    between atoms: _306  and  _308
REMARK  137  A    between atoms: _308  and  _309
REMARK  138  A    between atoms: _308  and  _311
REMARK  139  A    between atoms: _311  and  _312
REMARK  140  A    between atoms: _317  and  _318
REMARK  141  A    between atoms: _320  and  _322
REMARK  142  A    between atoms: _322  and  _323
REMARK  143  A    between atoms: _326  and  _328
REMARK  144  A    between atoms: _328  and  _329
REMARK  145  A    between atoms: _328  and  _331
REMARK  146  A    between atoms: _331  and  _332
REMARK  147  A    between atoms: _337  and  _339
REMARK  148  A    between atoms: _339  and  _340
REMARK  149  A    between atoms: _342  and  _344
REMARK  150  A    between atoms: _344  and  _345
REMARK  151  A    between atoms: _347  and  _349
REMARK  152  A    between atoms: _349  and  _350
REMARK  153  A    between atoms: _349  and  _352
REMARK  154  A    between atoms: _352  and  _353
REMARK  155  A    between atoms: _353  and  _354
REMARK  156  A    between atoms: _357  and  _359
REMARK  157  A    between atoms: _359  and  _360
REMARK  158  A    between atoms: _359  and  _362
REMARK  159  A    between atoms: _362  and  _363
REMARK  160  A    between atoms: _369  and  _371
REMARK  161  A    between atoms: _371  and  _372
REMARK  162  A    between atoms: _371  and  _374
REMARK  163  A    between atoms: _374  and  _375
REMARK  164  A    between atoms: _381  and  _383
REMARK  165  A    between atoms: _383  and  _384
REMARK  166  A    between atoms: _383  and  _386
REMARK  167  A    between atoms: _386  and  _387
REMARK  168  A    between atoms: _392  and  _393
REMARK  169  A    between atoms: _395  and  _397
REMARK  170  A    between atoms: _397  and  _398
REMARK  171  A    between atoms: _397  and  _400
REMARK  172  A    between atoms: _400  and  _401
REMARK  173  A    between atoms: _404  and  _406
REMARK  174  A    between atoms: _406  and  _407
REMARK  175  A    between atoms: _406  and  _409
REMARK  176  A    between atoms: _409  and  _410
REMARK  177  A    between atoms: _410  and  _411
REMARK  178  A    between atoms: _411  and  _412
REMARK  179  A    between atoms: _412  and  _413
REMARK  180  A    between atoms: _417  and  _419
REMARK  181  A    between atoms: _419  and  _420
REMARK  182  A    between atoms: _419  and  _422
REMARK  183  A    between atoms: _422  and  _423
REMARK  184  A    between atoms: _426  and  _428
REMARK  185  A    between atoms: _428  and  _429
REMARK  186  A    between atoms: _428  and  _431
REMARK  187  A    between atoms: _431  and  _432
REMARK  188  A    between atoms: _432  and  _433
REMARK  189  A    between atoms: _436  and  _438
REMARK  190  A    between atoms: _438  and  _439
REMARK  191  A    between atoms: _438  and  _441
REMARK  192  A    between atoms: _441  and  _442
REMARK  193  A    between atoms: _447  and  _449
REMARK  194  A    between atoms: _449  and  _450
REMARK  195  A    between atoms: _449  and  _452
REMARK  196  A    between atoms: _452  and  _453
REMARK  197  A    between atoms: _456  and  _458
REMARK  198  A    between atoms: _458  and  _459
REMARK  199  A    between atoms: _458  and  _461
REMARK  200  A    between atoms: _461  and  _462
REMARK  201  A    between atoms: _462  and  _463
REMARK  202  A    between atoms: _465  and  _467
REMARK  203  A    between atoms: _467  and  _468
REMARK  204  A    between atoms: _467  and  _470
REMARK  205  A    between atoms: _470  and  _471
REMARK  206  A    between atoms: _474  and  _476
REMARK  207  A    between atoms: _476  and  _477
REMARK  208  A    between atoms: _476  and  _479
REMARK  209  A    between atoms: _479  and  _480
REMARK  210  A    between atoms: _480  and  _481
REMARK  211  A    between atoms: _481  and  _482
REMARK  212  A    between atoms: _482  and  _483
REMARK  213  A    between atoms: _487  and  _489
REMARK  214  A    between atoms: _489  and  _490
REMARK  215  A    between atoms: _489  and  _492
REMARK  216  A    between atoms: _492  and  _493
REMARK  217  A    between atoms: _496  and  _498
REMARK  218  A    between atoms: _498  and  _499
REMARK  219  A    between atoms: _498  and  _501
REMARK  220  A    between atoms: _501  and  _502
REMARK  221  A    between atoms: _505  and  _507
REMARK  222  A    between atoms: _507  and  _508
REMARK  223  A    between atoms: _507  and  _510
REMARK  224  A    between atoms: _510  and  _511
REMARK  225  A    between atoms: _514  and  _516
REMARK  226  A    between atoms: _516  and  _517
REMARK  227  A    between atoms: _516  and  _519
REMARK  228  A    between atoms: _519  and  _520
REMARK  229  A    between atoms: _526  and  _528
REMARK  230  A    between atoms: _528  and  _529
REMARK  231  A    between atoms: _531  and  _533
REMARK  232  A    between atoms: _533  and  _534
REMARK  233  A    between atoms: _533  and  _536
REMARK  234  A    between atoms: _536  and  _537
REMARK  235  A    between atoms: _540  and  _542
REMARK  236  A    between atoms: _542  and  _543
REMARK  237  A    between atoms: _542  and  _545
REMARK  238  A    between atoms: _547  and  _549
REMARK  239  A    between atoms: _549  and  _550
REMARK  240  A    between atoms: _549  and  _552
REMARK  241  A    between atoms: _552  and  _553
REMARK  242  A    between atoms: _559  and  _561
REMARK  243  A    between atoms: _561  and  _562
REMARK  244  A    between atoms: _561  and  _564
REMARK  245  A    between atoms: _564  and  _565
REMARK  246  A    between atoms: _568  and  _570
REMARK  247  A    between atoms: _570  and  _571
REMARK  248  A    between atoms: _570  and  _573
REMARK  249  A    between atoms: _573  and  _574
REMARK  250  A    between atoms: _574  and  _575
REMARK  251  A    between atoms: _578  and  _580
REMARK  252  A    between atoms: _580  and  _581
REMARK  253  A    between atoms: _580  and  _583
REMARK  254  A    between atoms: _583  and  _584
REMARK  255  A    between atoms: _590  and  _592
REMARK  256  A    between atoms: _592  and  _593
REMARK  257  A    between atoms: _592  and  _595
REMARK  258  A    between atoms: _595  and  _596
REMARK                            x       y       z     vdW  Elec       q    Type
REMARK                         _______ _______ _______ _____ _____    ______ ____
ROOT
ATOM      1  C   PHE A   1      11.973 -22.988  14.597  0.00  0.00    +0.239 C 
ATOM      2  O   PHE A   1      11.264 -23.767  15.234  0.00  0.00    -0.274 OA
ATOM      3  N   PHE A   2      12.864 -22.176  15.170  0.00  0.00    -0.298 N 
ATOM      4  H   PHE A   2      13.445 -21.565  14.561  0.00  0.00    +0.150 HD
ENDROOT
BRANCH   1   5
ATOM      5  CA  PHE A   1      11.858 -22.904  13.065  0.00  0.00    +0.149 C 
BRANCH   5   6
ATOM      6  N   PHE A   1      11.837 -21.509  12.611  0.00  0.00    -0.238 NA
ATOM      7  H   PHE A   1      12.524 -21.197  11.895  0.00  0.00    +0.142 HD
ENDBRANCH   5   6
BRANCH   5   8
ATOM      8  CB  PHE A   1      13.007 -23.671  12.404  0.00  0.00    +0.053 C 
BRANCH   8   9
ATOM      9  CG  PHE A   1      13.026 -25.136  12.730  0.00  0.00    -0.020 A 
ATOM     10  CD2 PHE A   1      13.829 -25.622  13.756  0.00  0.00    -0.004 A 
ATOM     11  CE2 PHE A   1      13.849 -26.975  14.064  0.00  0.00    -0.000 A 
ATOM     12  CZ  PHE A   1      13.063 -27.862  13.342  0.00  0.00    -0.000 A 
ATOM     13  CE1 PHE A   1      12.254 -27.389  12.317  0.00  0.00    -0.000 A 
ATOM     14  CD1 PHE A   1      12.238 -26.034  12.014  0.00  0.00    -0.004 A 
ENDBRANCH   8   9
ENDBRANCH   5   8
ENDBRANCH   1   5
BRANCH   3  15
ATOM     15  CA  PHE A   2      13.058 -22.109  16.621  0.00  0.00    +0.141 C 
BRANCH  15  16
ATOM     16  C   PHE A   2      11.767 -21.730  17.346  0.00  0.00    +0.227 C 
ATOM     17  O   PHE A   2      11.382 -22.374  18.317  0.00  0.00    -0.286 OA
ENDBRANCH  15  16
BRANCH  15  18
ATOM     18  CB  PHE A   2      14.151 -21.091  16.963  0.00  0.00    +0.054 C 
BRANCH  18  19
ATOM     19  CG  PHE A   2      14.485 -21.020  18.428  0.00  0.00    -0.020 A 
ATOM     20  CD2 PHE A   2      13.788 -20.164  19.274  0.00  0.00    -0.004 A 
ATOM     21  CE2 PHE A   2      14.089 -20.102  20.629  0.00  0.00    -0.000 A 
ATOM     22  CZ  PHE A   2      15.095 -20.904  21.148  0.00  0.00    -0.000 A 
ATOM     23  CE1 PHE A   2      15.797 -21.764  20.312  0.00  0.00    -0.000 A 
ATOM     24  CD1 PHE A   2      15.490 -21.816  18.964  0.00  0.00    -0.004 A 
ENDBRANCH  18  19
ENDBRANCH  15  18
ENDBRANCH   3  15
TORSDOF 8
REMARK  Name = ../refined-set-2016/3d0e/3d0e_pocket.pdb
REMARK  258 active torsions:
REMARK  status: ('A' for Active; 'I' for Inactive)
REMARK    1  A    between atoms: _1  and  _3
REMARK    2  A    between atoms: _3  and  _4
REMARK    3  A    between atoms: _3  and  _6
REMARK    4  A    between atoms: _6  and  _7
REMARK    5  A    between atoms: _10  and  _12
REMARK    6  A    between atoms: _12  and  _13
REMARK    7  A    between atoms: _12  and  _15
REMARK    8  A    between atoms: _15  and  _16
REMARK    9  A    between atoms: _19  and  _21
REMARK   10  A    between atoms: _21  and  _22
REMARK   11  A    between atoms: _24  and  _26
REMARK   12  A    between atoms: _26  and  _27
REMARK   13  A    between atoms: _26  and  _29
REMARK   14  A    between atoms: _29  and  _30
REMARK   15  A    between atoms: _30  and  _31
REMARK   16  A    between atoms: _31  and  _32
REMARK   17  A    between atoms: _32  and  _33
REMARK   18  A    between atoms: _37  and  _39
REMARK   19  A    between atoms: _39  and  _40
REMARK   20  A    between atoms: _42  and  _44
REMARK   21  A    between atoms: _44  and  _45
REMARK   22  A    between atoms: _44  and  _47
REMARK   23  A    between atoms: _47  and  _48
REMARK   24  A    between atoms: _51  and  _53
REMARK   25  A    between atoms: _53  and  _54
REMARK   26  A    between atoms: _53  and  _56
REMARK   27  A    between atoms: _56  and  _57
REMARK   28  A    between atoms: _63  and  _65
REMARK   29  A    between atoms: _65  and  _66
REMARK   30  A    between atoms: _68  and  _70
REMARK   31  A    between atoms: _70  and  _71
REMARK   32  A    between atoms: _70  and  _73
REMARK   33  A    between atoms: _73  and  _74
REMARK   34  A    between atoms: _74  and  _75
REMARK   35  A    between atoms: _75  and  _76
REMARK   36  A    between atoms: _76  and  _77
REMARK   37  A    between atoms: _81  and  _83
REMARK   38  A    between atoms: _83  and  _84
REMARK   39  A    between atoms: _83  and  _86
REMARK   40  A    between atoms: _89  and  _91
REMARK   41  A    between atoms: _91  and  _92
REMARK   42  A    between atoms: _91  and  _94
REMARK   43  A    between atoms: _94  and  _95
REMARK   44  A    between atoms: _98  and  _100
REMARK   45  A    between atoms: _100  and  _101
REMARK   46  A    between atoms: _100  and  _103
REMARK   47  A    between atoms: _103  and  _104
REMARK   48  A    between atoms: _107  and  _109
REMARK   49  A    between atoms: _109  and  _110
REMARK   50  A    between atoms: _109  and  _112
REMARK   51  A    between atoms: _112  and  _113
REMARK   52  A    between atoms: _118  and  _119
REMARK   53  A    between atoms: _121  and  _123
REMARK   54  A    between atoms: _123  and  _124
REMARK   55  A    between atoms: _127  and  _129
REMARK   56  A    between atoms: _129  and  _130
REMARK   57  A    between atoms: _129  and  _132
REMARK   58  A    between atoms: _132  and  _133
REMARK   59  A    between atoms: _133  and  _134
REMARK   60  A    between atoms: _136  and  _138
REMARK   61  A    between atoms: _138  and  _139
REMARK   62  A    between atoms: _138  and  _141
REMARK   63  A    between atoms: _141  and  _142
REMARK   64  A    between atoms: _142  and  _143
REMARK   65  A    between atoms: _143  and  _144
REMARK   66  A    between atoms: _144  and  _145
REMARK   67  A    between atoms: _149  and  _151
REMARK   68  A    between atoms: _151  and  _152
REMARK   69  A    between atoms: _151  and  _154
REMARK   70  A    between atoms: _154  and  _155
REMARK   71  A    between atoms: _158  and  _160
REMARK   72  A    between atoms: _160  and  _161
REMARK   73  A    between atoms: _160  and  _163
REMARK   74  A    between atoms: _163  and  _164
REMARK   75  A    between atoms: _167  and  _169
REMARK   76  A    between atoms: _169  and  _170
REMARK   77  A    between atoms: _169  and  _172
REMARK   78  A    between atoms: _172  and  _173
REMARK   79  A    between atoms: _173  and  _174
REMARK   80  A    between atoms: _177  and  _179
REMARK   81  A    between atoms: _179  and  _180
REMARK   82  A    between atoms: _179  and  _182
REMARK   83  A    between atoms: _182  and  _183
REMARK   84  A    between atoms: _185  and  _187
REMARK   85  A    between atoms: _187  and  _188
REMARK   86  A    between atoms: _187  and  _190
REMARK   87  A    between atoms: _190  and  _191
REMARK   88  A    between atoms: _194  and  _196
REMARK   89  A    between atoms: _196  and  _197
REMARK   90  A    between atoms: _196  and  _199
REMARK   91  A    between atoms: _199  and  _200
REMARK   92  A    between atoms: _203  and  _205
REMARK   93  A    between atoms: _205  and  _206
REMARK   94  A    between atoms: _205  and  _208
REMARK   95  A    between atoms: _208  and  _209
REMARK   96  A    between atoms: _212  and  _214
REMARK   97  A    between atoms: _214  and  _215
REMARK   98  A    between atoms: _218  and  _220
REMARK   99  A    between atoms: _220  and  _221
REMARK  100  A    between atoms: _220  and  _223
REMARK  101  A    between atoms: _223  and  _224
REMARK  102  A    between atoms: _227  and  _229
REMARK  103  A    between atoms: _229  and  _230
REMARK  104  A    between atoms: _229  and  _232
REMARK  105  A    between atoms: _232  and  _233
REMARK  106  A    between atoms: _233  and  _234
REMARK  107  A    between atoms: _234  and  _235
REMARK  108  A    between atoms: _235  and  _236
REMARK  109  A    between atoms: _240  and  _242
REMARK  110  A    between atoms: _242  and  _243
REMARK  111  A    between atoms: _242  and  _245
REMARK  112  A    between atoms: _245  and  _246
REMARK  113  A    between atoms: _251  and  _252
REMARK  114  A    between atoms: _254  and  _256
REMARK  115  A    between atoms: _256  and  _257
REMARK  116  A    between atoms: _260  and  _262
REMARK  117  A    between atoms: _262  and  _263
REMARK  118  A    between atoms: _262  and  _265
REMARK  119  A    between atoms: _267  and  _269
REMARK  120  A    between atoms: _269  and  _270
REMARK  121  A    between atoms: _269  and  _272
REMARK  122  A    between atoms: _272  and  _273
REMARK  123  A    between atoms: _279  and  _281
REMARK  124  A    between atoms: _281  and  _282
REMARK  125  A    between atoms: _281  and  _284
REMARK  126  A    between atoms: _287  and  _289
REMARK  127  A    between atoms: _289  and  _290
REMARK  128  A    between atoms: _289  and  _292
REMARK  129  A    between atoms: _292  and  _293
REMARK  130  A    between atoms: _293  and  _294
REMARK  131  A    between atoms: _296  and  _298
REMARK  132  A    between atoms: _298  and  _299
REMARK  133  A    between atoms: _298  and  _301
REMARK  134  A    between atoms: _301  and  _302
REMARK  135  A    between atoms: _302  and  _303
REMARK  136  A    between atoms: _306  and  _308
REMARK  137  A    between atoms: _308  and  _309
REMARK  138  A    between atoms: _308  and  _311
REMARK  139  A    between atoms: _311  and  _312
REMARK  140  A    between atoms: _317  and  _318
REMARK  141  A    between atoms: _320  and  _322
REMARK  142  A    between atoms: _322  and  _323
REMARK  143  A    between atoms: _326  and  _328
REMARK  144  A    between atoms: _328  and  _329
REMARK  145  A    between atoms: _328  and  _331
REMARK  146  A    between atoms: _331  and  _332
REMARK  147  A    between atoms: _337  and  _339
REMARK  148  A    between atoms: _339  and  _340
REMARK  149  A    between atoms: _342  and  _344
REMARK  150  A    between atoms: _344  and  _345
REMARK  151  A    between atoms: _347  and  _349
REMARK  152  A    between atoms: _349  and  _350
REMARK  153  A    between atoms: _349  and  _352
REMARK  154  A    between atoms: _352  and  _353
REMARK  155  A    between atoms: _353  and  _354
REMARK  156  A    between atoms: _357  and  _359
REMARK  157  A    between atoms: _359  and  _360
REMARK  158  A    between atoms: _359  and  _362
REMARK  159  A    between atoms: _362  and  _363
REMARK  160  A    between atoms: _369  and  _371
REMARK  161  A    between atoms: _371  and  _372
REMARK  162  A    between atoms: _371  and  _374
REMARK  163  A    between atoms: _374  and  _375
REMARK  164  A    between atoms: _381  and  _383
REMARK  165  A    between atoms: _383  and  _384
REMARK  166  A    between atoms: _383  and  _386
REMARK  167  A    between atoms: _386  and  _387
REMARK  168  A    between atoms: _392  and  _393
REMARK  169  A    between atoms: _395  and  _397
REMARK  170  A    between atoms: _397  and  _398
REMARK  171  A    between atoms: _397  and  _400
REMARK  172  A    between atoms: _400  and  _401
REMARK  173  A    between atoms: _404  and  _406
REMARK  174  A    between atoms: _406  and  _407
REMARK  175  A    between atoms: _406  and  _409
REMARK  176  A    between atoms: _409  and  _410
REMARK  177  A    between atoms: _410  and  _411
REMARK  178  A    between atoms: _411  and  _412
REMARK  179  A    between atoms: _412  and  _413
REMARK  180  A    between atoms: _417  and  _419
REMARK  181  A    between atoms: _419  and  _420
REMARK  182  A    between atoms: _419  and  _422
REMARK  183  A    between atoms: _422  and  _423
REMARK  184  A    between atoms: _426  and  _428
REMARK  185  A    between atoms: _428  and  _429
REMARK  186  A    between atoms: _428  and  _431
REMARK  187  A    between atoms: _431  and  _432
REMARK  188  A    between atoms: _432  and  _433
REMARK  189  A    between atoms: _436  and  _438
REMARK  190  A    between atoms: _438  and  _439
REMARK  191  A    between atoms: _438  and  _441
REMARK  192  A    between atoms: _441  and  _442
REMARK  193  A    between atoms: _447  and  _449
REMARK  194  A    between atoms: _449  and  _450
REMARK  195  A    between atoms: _449  and  _452
REMARK  196  A    between atoms: _452  and  _453
REMARK  197  A    between atoms: _456  and  _458
REMARK  198  A    between atoms: _458  and  _459
REMARK  199  A    between atoms: _458  and  _461
REMARK  200  A    between atoms: _461  and  _462
REMARK  201  A    between atoms: _462  and  _463
REMARK  202  A    between atoms: _465  and  _467
REMARK  203  A    between atoms: _467  and  _468
REMARK  204  A    between atoms: _467  and  _470
REMARK  205  A    between atoms: _470  and  _471
REMARK  206  A    between atoms: _474  and  _476
REMARK  207  A    between atoms: _476  and  _477
REMARK  208  A    between atoms: _476  and  _479
REMARK  209  A    between atoms: _479  and  _480
REMARK  210  A    between atoms: _480  and  _481
REMARK  211  A    between atoms: _481  and  _482
REMARK  212  A    between atoms: _482  and  _483
REMARK  213  A    between atoms: _487  and  _489
REMARK  214  A    between atoms: _489  and  _490
REMARK  215  A    between atoms: _489  and  _492
REMARK  216  A    between atoms: _492  and  _493
REMARK  217  A    between atoms: _496  and  _498
REMARK  218  A    between atoms: _498  and  _499
REMARK  219  A    between atoms: _498  and  _501
REMARK  220  A    between atoms: _501  and  _502
REMARK  221  A    between atoms: _505  and  _507
REMARK  222  A    between atoms: _507  and  _508
REMARK  223  A    between atoms: _507  and  _510
REMARK  224  A    between atoms: _510  and  _511
REMARK  225  A    between atoms: _514  and  _516
REMARK  226  A    between atoms: _516  and  _517
REMARK  227  A    between atoms: _516  and  _519
REMARK  228  A    between atoms: _519  and  _520
REMARK  229  A    between atoms: _526  and  _528
REMARK  230  A    between atoms: _528  and  _529
REMARK  231  A    between atoms: _531  and  _533
REMARK  232  A    between atoms: _533  and  _534
REMARK  233  A    between atoms: _533  and  _536
REMARK  234  A    between atoms: _536  and  _537
REMARK  235  A    between atoms: _540  and  _542
REMARK  236  A    between atoms: _542  and  _543
REMARK  237  A    between atoms: _542  and  _545
REMARK  238  A    between atoms: _547  and  _549
REMARK  239  A    between atoms: _549  and  _550
REMARK  240  A    between atoms: _549  and  _552
REMARK  241  A    between atoms: _552  and  _553
REMARK  242  A    between atoms: _559  and  _561
REMARK  243  A    between atoms: _561  and  _562
REMARK  244  A    between atoms: _561  and  _564
REMARK  245  A    between atoms: _564  and  _565
REMARK  246  A    between atoms: _568  and  _570
REMARK  247  A    between atoms: _570  and  _571
REMARK  248  A    between atoms: _570  and  _573
REMARK  249  A    between atoms: _573  and  _574
REMARK  250  A    between atoms: _574  and  _575
REMARK  251  A    between atoms: _578  and  _580
REMARK  252  A    between atoms: _580  and  _581
REMARK  253  A    between atoms: _580  and  _583
REMARK  254  A    between atoms: _583  and  _584
REMARK  255  A    between atoms: _590  and  _592
REMARK  256  A    between atoms: _592  and  _593
REMARK  257  A    between atoms: _592  and  _595
REMARK  258  A    between atoms: _595  and  _596
REMARK                            x       y       z     vdW  Elec       q    Type
REMARK                         _______ _______ _______ _____ _____    ______ ____
ROOT
ATOM      1  CG  TYR A   1      15.183 -18.048  -1.911  0.00  0.00    -0.020 A 
ATOM      2  CD2 TYR A   1      14.509 -18.813  -0.976  0.00  0.00    -0.001 A 
ATOM      3  CE2 TYR A   1      15.046 -19.056   0.272  0.00  0.00    +0.036 A 
ATOM      4  CZ  TYR A   1      16.262 -18.530   0.612  0.00  0.00    +0.134 A 
ATOM      5  CE1 TYR A   1      16.968 -17.745  -0.290  0.00  0.00    +0.036 A 
ATOM      6  CD1 TYR A   1      16.420 -17.507  -1.555  0.00  0.00    -0.001 A 
ENDROOT
BRANCH   4   7
ATOM      7  OH  TYR A   1      16.747 -18.813   1.861  0.00  0.00    -0.506 OA
ATOM      8  HH  TYR A   1      17.627 -18.375   1.979  0.00  0.00    +0.292 HD
ENDBRANCH   4   7
BRANCH   1   9
ATOM      9  CB  TYR A   1      14.577 -17.800  -3.269  0.00  0.00    +0.051 C 
BRANCH   9  10
ATOM     10  CA  TYR A   1      15.276 -18.530  -4.416  0.00  0.00    +0.137 C 
BRANCH  10  11
ATOM     11  N   TYR A   1      14.563 -18.264  -5.666  0.00  0.00    -0.239 NA
ATOM     12  H   TYR A   1      13.553 -18.021  -5.626  0.00  0.00    +0.142 HD
ENDBRANCH  10  11
BRANCH  10  13
ATOM     13  C   TYR A   1      15.447 -20.034  -4.120  0.00  0.00    +0.224 C 
ATOM     14  O   TYR A   1      16.516 -20.465  -3.673  0.00  0.00    -0.287 OA
ENDBRANCH  10  13
ENDBRANCH   9  10
ENDBRANCH   1   9
TORSDOF 5
REMARK  Name = ../refined-set-2016/3d0e/3d0e_pocket.pdb
REMARK  258 active torsions:
REMARK  status: ('A' for Active; 'I' for Inactive)
REMARK    1  A    between atoms: _1  and  _3
REMARK    2  A    between atoms: _3  and  _4
REMARK    3  A    between atoms: _3  and  _6
REMARK    4  A    between atoms: _6  and  _7
REMARK    5  A    between atoms: _10  and  _12
REMARK    6  A    between atoms: _12  and  _13
REMARK    7  A    between atoms: _12  and  _15
REMARK    8  A    between atoms: _15  and  _16
REMARK    9  A    between atoms: _19  and  _21
REMARK   10  A    between atoms: _21  and  _22
REMARK   11  A    between atoms: _24  and  _26
REMARK   12  A    between atoms: _26  and  _27
REMARK   13  A    between atoms: _26  and  _29
REMARK   14  A    between atoms: _29  and  _30
REMARK   15  A    between atoms: _30  and  _31
REMARK   16  A    between atoms: _31  and  _32
REMARK   17  A    between atoms: _32  and  _33
REMARK   18  A    between atoms: _37  and  _39
REMARK   19  A    between atoms: _39  and  _40
REMARK   20  A    between atoms: _42  and  _44
REMARK   21  A    between atoms: _44  and  _45
REMARK   22  A    between atoms: _44  and  _47
REMARK   23  A    between atoms: _47  and  _48
REMARK   24  A    between atoms: _51  and  _53
REMARK   25  A    between atoms: _53  and  _54
REMARK   26  A    between atoms: _53  and  _56
REMARK   27  A    between atoms: _56  and  _57
REMARK   28  A    between atoms: _63  and  _65
REMARK   29  A    between atoms: _65  and  _66
REMARK   30  A    between atoms: _68  and  _70
REMARK   31  A    between atoms: _70  and  _71
REMARK   32  A    between atoms: _70  and  _73
REMARK   33  A    between atoms: _73  and  _74
REMARK   34  A    between atoms: _74  and  _75
REMARK   35  A    between atoms: _75  and  _76
REMARK   36  A    between atoms: _76  and  _77
REMARK   37  A    between atoms: _81  and  _83
REMARK   38  A    between atoms: _83  and  _84
REMARK   39  A    between atoms: _83  and  _86
REMARK   40  A    between atoms: _89  and  _91
REMARK   41  A    between atoms: _91  and  _92
REMARK   42  A    between atoms: _91  and  _94
REMARK   43  A    between atoms: _94  and  _95
REMARK   44  A    between atoms: _98  and  _100
REMARK   45  A    between atoms: _100  and  _101
REMARK   46  A    between atoms: _100  and  _103
REMARK   47  A    between atoms: _103  and  _104
REMARK   48  A    between atoms: _107  and  _109
REMARK   49  A    between atoms: _109  and  _110
REMARK   50  A    between atoms: _109  and  _112
REMARK   51  A    between atoms: _112  and  _113
REMARK   52  A    between atoms: _118  and  _119
REMARK   53  A    between atoms: _121  and  _123
REMARK   54  A    between atoms: _123  and  _124
REMARK   55  A    between atoms: _127  and  _129
REMARK   56  A    between atoms: _129  and  _130
REMARK   57  A    between atoms: _129  and  _132
REMARK   58  A    between atoms: _132  and  _133
REMARK   59  A    between atoms: _133  and  _134
REMARK   60  A    between atoms: _136  and  _138
REMARK   61  A    between atoms: _138  and  _139
REMARK   62  A    between atoms: _138  and  _141
REMARK   63  A    between atoms: _141  and  _142
REMARK   64  A    between atoms: _142  and  _143
REMARK   65  A    between atoms: _143  and  _144
REMARK   66  A    between atoms: _144  and  _145
REMARK   67  A    between atoms: _149  and  _151
REMARK   68  A    between atoms: _151  and  _152
REMARK   69  A    between atoms: _151  and  _154
REMARK   70  A    between atoms: _154  and  _155
REMARK   71  A    between atoms: _158  and  _160
REMARK   72  A    between atoms: _160  and  _161
REMARK   73  A    between atoms: _160  and  _163
REMARK   74  A    between atoms: _163  and  _164
REMARK   75  A    between atoms: _167  and  _169
REMARK   76  A    between atoms: _169  and  _170
REMARK   77  A    between atoms: _169  and  _172
REMARK   78  A    between atoms: _172  and  _173
REMARK   79  A    between atoms: _173  and  _174
REMARK   80  A    between atoms: _177  and  _179
REMARK   81  A    between atoms: _179  and  _180
REMARK   82  A    between atoms: _179  and  _182
REMARK   83  A    between atoms: _182  and  _183
REMARK   84  A    between atoms: _185  and  _187
REMARK   85  A    between atoms: _187  and  _188
REMARK   86  A    between atoms: _187  and  _190
REMARK   87  A    between atoms: _190  and  _191
REMARK   88  A    between atoms: _194  and  _196
REMARK   89  A    between atoms: _196  and  _197
REMARK   90  A    between atoms: _196  and  _199
REMARK   91  A    between atoms: _199  and  _200
REMARK   92  A    between atoms: _203  and  _205
REMARK   93  A    between atoms: _205  and  _206
REMARK   94  A    between atoms: _205  and  _208
REMARK   95  A    between atoms: _208  and  _209
REMARK   96  A    between atoms: _212  and  _214
REMARK   97  A    between atoms: _214  and  _215
REMARK   98  A    between atoms: _218  and  _220
REMARK   99  A    between atoms: _220  and  _221
REMARK  100  A    between atoms: _220  and  _223
REMARK  101  A    between atoms: _223  and  _224
REMARK  102  A    between atoms: _227  and  _229
REMARK  103  A    between atoms: _229  and  _230
REMARK  104  A    between atoms: _229  and  _232
REMARK  105  A    between atoms: _232  and  _233
REMARK  106  A    between atoms: _233  and  _234
REMARK  107  A    between atoms: _234  and  _235
REMARK  108  A    between atoms: _235  and  _236
REMARK  109  A    between atoms: _240  and  _242
REMARK  110  A    between atoms: _242  and  _243
REMARK  111  A    between atoms: _242  and  _245
REMARK  112  A    between atoms: _245  and  _246
REMARK  113  A    between atoms: _251  and  _252
REMARK  114  A    between atoms: _254  and  _256
REMARK  115  A    between atoms: _256  and  _257
REMARK  116  A    between atoms: _260  and  _262
REMARK  117  A    between atoms: _262  and  _263
REMARK  118  A    between atoms: _262  and  _265
REMARK  119  A    between atoms: _267  and  _269
REMARK  120  A    between atoms: _269  and  _270
REMARK  121  A    between atoms: _269  and  _272
REMARK  122  A    between atoms: _272  and  _273
REMARK  123  A    between atoms: _279  and  _281
REMARK  124  A    between atoms: _281  and  _282
REMARK  125  A    between atoms: _281  and  _284
REMARK  126  A    between atoms: _287  and  _289
REMARK  127  A    between atoms: _289  and  _290
REMARK  128  A    between atoms: _289  and  _292
REMARK  129  A    between atoms: _292  and  _293
REMARK  130  A    between atoms: _293  and  _294
REMARK  131  A    between atoms: _296  and  _298
REMARK  132  A    between atoms: _298  and  _299
REMARK  133  A    between atoms: _298  and  _301
REMARK  134  A    between atoms: _301  and  _302
REMARK  135  A    between atoms: _302  and  _303
REMARK  136  A    between atoms: _306  and  _308
REMARK  137  A    between atoms: _308  and  _309
REMARK  138  A    between atoms: _308  and  _311
REMARK  139  A    between atoms: _311  and  _312
REMARK  140  A    between atoms: _317  and  _318
REMARK  141  A    between atoms: _320  and  _322
REMARK  142  A    between atoms: _322  and  _323
REMARK  143  A    between atoms: _326  and  _328
REMARK  144  A    between atoms: _328  and  _329
REMARK  145  A    between atoms: _328  and  _331
REMARK  146  A    between atoms: _331  and  _332
REMARK  147  A    between atoms: _337  and  _339
REMARK  148  A    between atoms: _339  and  _340
REMARK  149  A    between atoms: _342  and  _344
REMARK  150  A    between atoms: _344  and  _345
REMARK  151  A    between atoms: _347  and  _349
REMARK  152  A    between atoms: _349  and  _350
REMARK  153  A    between atoms: _349  and  _352
REMARK  154  A    between atoms: _352  and  _353
REMARK  155  A    between atoms: _353  and  _354
REMARK  156  A    between atoms: _357  and  _359
REMARK  157  A    between atoms: _359  and  _360
REMARK  158  A    between atoms: _359  and  _362
REMARK  159  A    between atoms: _362  and  _363
REMARK  160  A    between atoms: _369  and  _371
REMARK  161  A    between atoms: _371  and  _372
REMARK  162  A    between atoms: _371  and  _374
REMARK  163  A    between atoms: _374  and  _375
REMARK  164  A    between atoms: _381  and  _383
REMARK  165  A    between atoms: _383  and  _384
REMARK  166  A    between atoms: _383  and  _386
REMARK  167  A    between atoms: _386  and  _387
REMARK  168  A    between atoms: _392  and  _393
REMARK  169  A    between atoms: _395  and  _397
REMARK  170  A    between atoms: _397  and  _398
REMARK  171  A    between atoms: _397  and  _400
REMARK  172  A    between atoms: _400  and  _401
REMARK  173  A    between atoms: _404  and  _406
REMARK  174  A    between atoms: _406  and  _407
REMARK  175  A    between atoms: _406  and  _409
REMARK  176  A    between atoms: _409  and  _410
REMARK  177  A    between atoms: _410  and  _411
REMARK  178  A    between atoms: _411  and  _412
REMARK  179  A    between atoms: _412  and  _413
REMARK  180  A    between atoms: _417  and  _419
REMARK  181  A    between atoms: _419  and  _420
REMARK  182  A    between atoms: _419  and  _422
REMARK  183  A    between atoms: _422  and  _423
REMARK  184  A    between atoms: _426  and  _428
REMARK  185  A    between atoms: _428  and  _429
REMARK  186  A    between atoms: _428  and  _431
REMARK  187  A    between atoms: _431  and  _432
REMARK  188  A    between atoms: _432  and  _433
REMARK  189  A    between atoms: _436  and  _438
REMARK  190  A    between atoms: _438  and  _439
REMARK  191  A    between atoms: _438  and  _441
REMARK  192  A    between atoms: _441  and  _442
REMARK  193  A    between atoms: _447  and  _449
REMARK  194  A    between atoms: _449  and  _450
REMARK  195  A    between atoms: _449  and  _452
REMARK  196  A    between atoms: _452  and  _453
REMARK  197  A    between atoms: _456  and  _458
REMARK  198  A    between atoms: _458  and  _459
REMARK  199  A    between atoms: _458  and  _461
REMARK  200  A    between atoms: _461  and  _462
REMARK  201  A    between atoms: _462  and  _463
REMARK  202  A    between atoms: _465  and  _467
REMARK  203  A    between atoms: _467  and  _468
REMARK  204  A    between atoms: _467  and  _470
REMARK  205  A    between atoms: _470  and  _471
REMARK  206  A    between atoms: _474  and  _476
REMARK  207  A    between atoms: _476  and  _477
REMARK  208  A    between atoms: _476  and  _479
REMARK  209  A    between atoms: _479  and  _480
REMARK  210  A    between atoms: _480  and  _481
REMARK  211  A    between atoms: _481  and  _482
REMARK  212  A    between atoms: _482  and  _483
REMARK  213  A    between atoms: _487  and  _489
REMARK  214  A    between atoms: _489  and  _490
REMARK  215  A    between atoms: _489  and  _492
REMARK  216  A    between atoms: _492  and  _493
REMARK  217  A    between atoms: _496  and  _498
REMARK  218  A    between atoms: _498  and  _499
REMARK  219  A    between atoms: _498  and  _501
REMARK  220  A    between atoms: _501  and  _502
REMARK  221  A    between atoms: _505  and  _507
REMARK  222  A    between atoms: _507  and  _508
REMARK  223  A    between atoms: _507  and  _510
REMARK  224  A    between atoms: _510  and  _511
REMARK  225  A    between atoms: _514  and  _516
REMARK  226  A    between atoms: _516  and  _517
REMARK  227  A    between atoms: _516  and  _519
REMARK  228  A    between atoms: _519  and  _520
REMARK  229  A    between atoms: _526  and  _528
REMARK  230  A    between atoms: _528  and  _529
REMARK  231  A    between atoms: _531  and  _533
REMARK  232  A    between atoms: _533  and  _534
REMARK  233  A    between atoms: _533  and  _536
REMARK  234  A    between atoms: _536  and  _537
REMARK  235  A    between atoms: _540  and  _542
REMARK  236  A    between atoms: _542  and  _543
REMARK  237  A    between atoms: _542  and  _545
REMARK  238  A    between atoms: _547  and  _549
REMARK  239  A    between atoms: _549  and  _550
REMARK  240  A    between atoms: _549  and  _552
REMARK  241  A    between atoms: _552  and  _553
REMARK  242  A    between atoms: _559  and  _561
REMARK  243  A    between atoms: _561  and  _562
REMARK  244  A    between atoms: _561  and  _564
REMARK  245  A    between atoms: _564  and  _565
REMARK  246  A    between atoms: _568  and  _570
REMARK  247  A    between atoms: _570  and  _571
REMARK  248  A    between atoms: _570  and  _573
REMARK  249  A    between atoms: _573  and  _574
REMARK  250  A    between atoms: _574  and  _575
REMARK  251  A    between atoms: _578  and  _580
REMARK  252  A    between atoms: _580  and  _581
REMARK  253  A    between atoms: _580  and  _583
REMARK  254  A    between atoms: _583  and  _584
REMARK  255  A    between atoms: _590  and  _592
REMARK  256  A    between atoms: _592  and  _593
REMARK  257  A    between atoms: _592  and  _595
REMARK  258  A    between atoms: _595  and  _596
REMARK                            x       y       z     vdW  Elec       q    Type
REMARK                         _______ _______ _______ _____ _____    ______ ____
ROOT
ATOM      1  CA  ASP A   1      15.031 -22.826  -0.566  0.00  0.00    +0.144 C 
ENDROOT
BRANCH   1   2
ATOM      2  N   ASP A   1      14.828 -22.205  -1.878  0.00  0.00    -0.239 NA
ATOM      3  H   ASP A   1      14.870 -21.170  -1.974  0.00  0.00    +0.142 HD
ENDBRANCH   1   2
BRANCH   1   4
ATOM      4  C   ASP A   1      14.174 -22.208   0.536  0.00  0.00    +0.225 C 
ATOM      5  O   ASP A   1      14.629 -22.062   1.670  0.00  0.00    -0.287 OA
ENDBRANCH   1   4
BRANCH   1   6
ATOM      6  CB  ASP A   1      16.519 -22.787  -0.180  0.00  0.00    +0.139 C 
BRANCH   6   7
ATOM      7  CG  ASP A   1      16.905 -23.906   0.795  0.00  0.00    +0.367 C 
ATOM      8  OD2 ASP A   1      17.941 -23.767   1.478  0.00  0.00    -0.246 OA
ATOM      9  OD1 ASP A   1      16.177 -24.916   0.879  0.00  0.00    -0.246 OA
ENDBRANCH   6   7
ENDBRANCH   1   6
TORSDOF 4
REMARK  Name = ../refined-set-2016/3d0e/3d0e_pocket.pdb
REMARK  258 active torsions:
REMARK  status: ('A' for Active; 'I' for Inactive)
REMARK    1  A    between atoms: _1  and  _3
REMARK    2  A    between atoms: _3  and  _4
REMARK    3  A    between atoms: _3  and  _6
REMARK    4  A    between atoms: _6  and  _7
REMARK    5  A    between atoms: _10  and  _12
REMARK    6  A    between atoms: _12  and  _13
REMARK    7  A    between atoms: _12  and  _15
REMARK    8  A    between atoms: _15  and  _16
REMARK    9  A    between atoms: _19  and  _21
REMARK   10  A    between atoms: _21  and  _22
REMARK   11  A    between atoms: _24  and  _26
REMARK   12  A    between atoms: _26  and  _27
REMARK   13  A    between atoms: _26  and  _29
REMARK   14  A    between atoms: _29  and  _30
REMARK   15  A    between atoms: _30  and  _31
REMARK   16  A    between atoms: _31  and  _32
REMARK   17  A    between atoms: _32  and  _33
REMARK   18  A    between atoms: _37  and  _39
REMARK   19  A    between atoms: _39  and  _40
REMARK   20  A    between atoms: _42  and  _44
REMARK   21  A    between atoms: _44  and  _45
REMARK   22  A    between atoms: _44  and  _47
REMARK   23  A    between atoms: _47  and  _48
REMARK   24  A    between atoms: _51  and  _53
REMARK   25  A    between atoms: _53  and  _54
REMARK   26  A    between atoms: _53  and  _56
REMARK   27  A    between atoms: _56  and  _57
REMARK   28  A    between atoms: _63  and  _65
REMARK   29  A    between atoms: _65  and  _66
REMARK   30  A    between atoms: _68  and  _70
REMARK   31  A    between atoms: _70  and  _71
REMARK   32  A    between atoms: _70  and  _73
REMARK   33  A    between atoms: _73  and  _74
REMARK   34  A    between atoms: _74  and  _75
REMARK   35  A    between atoms: _75  and  _76
REMARK   36  A    between atoms: _76  and  _77
REMARK   37  A    between atoms: _81  and  _83
REMARK   38  A    between atoms: _83  and  _84
REMARK   39  A    between atoms: _83  and  _86
REMARK   40  A    between atoms: _89  and  _91
REMARK   41  A    between atoms: _91  and  _92
REMARK   42  A    between atoms: _91  and  _94
REMARK   43  A    between atoms: _94  and  _95
REMARK   44  A    between atoms: _98  and  _100
REMARK   45  A    between atoms: _100  and  _101
REMARK   46  A    between atoms: _100  and  _103
REMARK   47  A    between atoms: _103  and  _104
REMARK   48  A    between atoms: _107  and  _109
REMARK   49  A    between atoms: _109  and  _110
REMARK   50  A    between atoms: _109  and  _112
REMARK   51  A    between atoms: _112  and  _113
REMARK   52  A    between atoms: _118  and  _119
REMARK   53  A    between atoms: _121  and  _123
REMARK   54  A    between atoms: _123  and  _124
REMARK   55  A    between atoms: _127  and  _129
REMARK   56  A    between atoms: _129  and  _130
REMARK   57  A    between atoms: _129  and  _132
REMARK   58  A    between atoms: _132  and  _133
REMARK   59  A    between atoms: _133  and  _134
REMARK   60  A    between atoms: _136  and  _138
REMARK   61  A    between atoms: _138  and  _139
REMARK   62  A    between atoms: _138  and  _141
REMARK   63  A    between atoms: _141  and  _142
REMARK   64  A    between atoms: _142  and  _143
REMARK   65  A    between atoms: _143  and  _144
REMARK   66  A    between atoms: _144  and  _145
REMARK   67  A    between atoms: _149  and  _151
REMARK   68  A    between atoms: _151  and  _152
REMARK   69  A    between atoms: _151  and  _154
REMARK   70  A    between atoms: _154  and  _155
REMARK   71  A    between atoms: _158  and  _160
REMARK   72  A    between atoms: _160  and  _161
REMARK   73  A    between atoms: _160  and  _163
REMARK   74  A    between atoms: _163  and  _164
REMARK   75  A    between atoms: _167  and  _169
REMARK   76  A    between atoms: _169  and  _170
REMARK   77  A    between atoms: _169  and  _172
REMARK   78  A    between atoms: _172  and  _173
REMARK   79  A    between atoms: _173  and  _174
REMARK   80  A    between atoms: _177  and  _179
REMARK   81  A    between atoms: _179  and  _180
REMARK   82  A    between atoms: _179  and  _182
REMARK   83  A    between atoms: _182  and  _183
REMARK   84  A    between atoms: _185  and  _187
REMARK   85  A    between atoms: _187  and  _188
REMARK   86  A    between atoms: _187  and  _190
REMARK   87  A    between atoms: _190  and  _191
REMARK   88  A    between atoms: _194  and  _196
REMARK   89  A    between atoms: _196  and  _197
REMARK   90  A    between atoms: _196  and  _199
REMARK   91  A    between atoms: _199  and  _200
REMARK   92  A    between atoms: _203  and  _205
REMARK   93  A    between atoms: _205  and  _206
REMARK   94  A    between atoms: _205  and  _208
REMARK   95  A    between atoms: _208  and  _209
REMARK   96  A    between atoms: _212  and  _214
REMARK   97  A    between atoms: _214  and  _215
REMARK   98  A    between atoms: _218  and  _220
REMARK   99  A    between atoms: _220  and  _221
REMARK  100  A    between atoms: _220  and  _223
REMARK  101  A    between atoms: _223  and  _224
REMARK  102  A    between atoms: _227  and  _229
REMARK  103  A    between atoms: _229  and  _230
REMARK  104  A    between atoms: _229  and  _232
REMARK  105  A    between atoms: _232  and  _233
REMARK  106  A    between atoms: _233  and  _234
REMARK  107  A    between atoms: _234  and  _235
REMARK  108  A    between atoms: _235  and  _236
REMARK  109  A    between atoms: _240  and  _242
REMARK  110  A    between atoms: _242  and  _243
REMARK  111  A    between atoms: _242  and  _245
REMARK  112  A    between atoms: _245  and  _246
REMARK  113  A    between atoms: _251  and  _252
REMARK  114  A    between atoms: _254  and  _256
REMARK  115  A    between atoms: _256  and  _257
REMARK  116  A    between atoms: _260  and  _262
REMARK  117  A    between atoms: _262  and  _263
REMARK  118  A    between atoms: _262  and  _265
REMARK  119  A    between atoms: _267  and  _269
REMARK  120  A    between atoms: _269  and  _270
REMARK  121  A    between atoms: _269  and  _272
REMARK  122  A    between atoms: _272  and  _273
REMARK  123  A    between atoms: _279  and  _281
REMARK  124  A    between atoms: _281  and  _282
REMARK  125  A    between atoms: _281  and  _284
REMARK  126  A    between atoms: _287  and  _289
REMARK  127  A    between atoms: _289  and  _290
REMARK  128  A    between atoms: _289  and  _292
REMARK  129  A    between atoms: _292  and  _293
REMARK  130  A    between atoms: _293  and  _294
REMARK  131  A    between atoms: _296  and  _298
REMARK  132  A    between atoms: _298  and  _299
REMARK  133  A    between atoms: _298  and  _301
REMARK  134  A    between atoms: _301  and  _302
REMARK  135  A    between atoms: _302  and  _303
REMARK  136  A    between atoms: _306  and  _308
REMARK  137  A    between atoms: _308  and  _309
REMARK  138  A    between atoms: _308  and  _311
REMARK  139  A    between atoms: _311  and  _312
REMARK  140  A    between atoms: _317  and  _318
REMARK  141  A    between atoms: _320  and  _322
REMARK  142  A    between atoms: _322  and  _323
REMARK  143  A    between atoms: _326  and  _328
REMARK  144  A    between atoms: _328  and  _329
REMARK  145  A    between atoms: _328  and  _331
REMARK  146  A    between atoms: _331  and  _332
REMARK  147  A    between atoms: _337  and  _339
REMARK  148  A    between atoms: _339  and  _340
REMARK  149  A    between atoms: _342  and  _344
REMARK  150  A    between atoms: _344  and  _345
REMARK  151  A    between atoms: _347  and  _349
REMARK  152  A    between atoms: _349  and  _350
REMARK  153  A    between atoms: _349  and  _352
REMARK  154  A    between atoms: _352  and  _353
REMARK  155  A    between atoms: _353  and  _354
REMARK  156  A    between atoms: _357  and  _359
REMARK  157  A    between atoms: _359  and  _360
REMARK  158  A    between atoms: _359  and  _362
REMARK  159  A    between atoms: _362  and  _363
REMARK  160  A    between atoms: _369  and  _371
REMARK  161  A    between atoms: _371  and  _372
REMARK  162  A    between atoms: _371  and  _374
REMARK  163  A    between atoms: _374  and  _375
REMARK  164  A    between atoms: _381  and  _383
REMARK  165  A    between atoms: _383  and  _384
REMARK  166  A    between atoms: _383  and  _386
REMARK  167  A    between atoms: _386  and  _387
REMARK  168  A    between atoms: _392  and  _393
REMARK  169  A    between atoms: _395  and  _397
REMARK  170  A    between atoms: _397  and  _398
REMARK  171  A    between atoms: _397  and  _400
REMARK  172  A    between atoms: _400  and  _401
REMARK  173  A    between atoms: _404  and  _406
REMARK  174  A    between atoms: _406  and  _407
REMARK  175  A    between atoms: _406  and  _409
REMARK  176  A    between atoms: _409  and  _410
REMARK  177  A    between atoms: _410  and  _411
REMARK  178  A    between atoms: _411  and  _412
REMARK  179  A    between atoms: _412  and  _413
REMARK  180  A    between atoms: _417  and  _419
REMARK  181  A    between atoms: _419  and  _420
REMARK  182  A    between atoms: _419  and  _422
REMARK  183  A    between atoms: _422  and  _423
REMARK  184  A    between atoms: _426  and  _428
REMARK  185  A    between atoms: _428  and  _429
REMARK  186  A    between atoms: _428  and  _431
REMARK  187  A    between atoms: _431  and  _432
REMARK  188  A    between atoms: _432  and  _433
REMARK  189  A    between atoms: _436  and  _438
REMARK  190  A    between atoms: _438  and  _439
REMARK  191  A    between atoms: _438  and  _441
REMARK  192  A    between atoms: _441  and  _442
REMARK  193  A    between atoms: _447  and  _449
REMARK  194  A    between atoms: _449  and  _450
REMARK  195  A    between atoms: _449  and  _452
REMARK  196  A    between atoms: _452  and  _453
REMARK  197  A    between atoms: _456  and  _458
REMARK  198  A    between atoms: _458  and  _459
REMARK  199  A    between atoms: _458  and  _461
REMARK  200  A    between atoms: _461  and  _462
REMARK  201  A    between atoms: _462  and  _463
REMARK  202  A    between atoms: _465  and  _467
REMARK  203  A    between atoms: _467  and  _468
REMARK  204  A    between atoms: _467  and  _470
REMARK  205  A    between atoms: _470  and  _471
REMARK  206  A    between atoms: _474  and  _476
REMARK  207  A    between atoms: _476  and  _477
REMARK  208  A    between atoms: _476  and  _479
REMARK  209  A    between atoms: _479  and  _480
REMARK  210  A    between atoms: _480  and  _481
REMARK  211  A    between atoms: _481  and  _482
REMARK  212  A    between atoms: _482  and  _483
REMARK  213  A    between atoms: _487  and  _489
REMARK  214  A    between atoms: _489  and  _490
REMARK  215  A    between atoms: _489  and  _492
REMARK  216  A    between atoms: _492  and  _493
REMARK  217  A    between atoms: _496  and  _498
REMARK  218  A    between atoms: _498  and  _499
REMARK  219  A    between atoms: _498  and  _501
REMARK  220  A    between atoms: _501  and  _502
REMARK  221  A    between atoms: _505  and  _507
REMARK  222  A    between atoms: _507  and  _508
REMARK  223  A    between atoms: _507  and  _510
REMARK  224  A    between atoms: _510  and  _511
REMARK  225  A    between atoms: _514  and  _516
REMARK  226  A    between atoms: _516  and  _517
REMARK  227  A    between atoms: _516  and  _519
REMARK  228  A    between atoms: _519  and  _520
REMARK  229  A    between atoms: _526  and  _528
REMARK  230  A    between atoms: _528  and  _529
REMARK  231  A    between atoms: _531  and  _533
REMARK  232  A    between atoms: _533  and  _534
REMARK  233  A    between atoms: _533  and  _536
REMARK  234  A    between atoms: _536  and  _537
REMARK  235  A    between atoms: _540  and  _542
REMARK  236  A    between atoms: _542  and  _543
REMARK  237  A    between atoms: _542  and  _545
REMARK  238  A    between atoms: _547  and  _549
REMARK  239  A    between atoms: _549  and  _550
REMARK  240  A    between atoms: _549  and  _552
REMARK  241  A    between atoms: _552  and  _553
REMARK  242  A    between atoms: _559  and  _561
REMARK  243  A    between atoms: _561  and  _562
REMARK  244  A    between atoms: _561  and  _564
REMARK  245  A    between atoms: _564  and  _565
REMARK  246  A    between atoms: _568  and  _570
REMARK  247  A    between atoms: _570  and  _571
REMARK  248  A    between atoms: _570  and  _573
REMARK  249  A    between atoms: _573  and  _574
REMARK  250  A    between atoms: _574  and  _575
REMARK  251  A    between atoms: _578  and  _580
REMARK  252  A    between atoms: _580  and  _581
REMARK  253  A    between atoms: _580  and  _583
REMARK  254  A    between atoms: _583  and  _584
REMARK  255  A    between atoms: _590  and  _592
REMARK  256  A    between atoms: _592  and  _593
REMARK  257  A    between atoms: _592  and  _595
REMARK  258  A    between atoms: _595  and  _596
REMARK                            x       y       z     vdW  Elec       q    Type
REMARK                         _______ _______ _______ _____ _____    ______ ____
ROOT
ATOM      1  CA  ASN A   4      15.931 -19.867   6.375  0.00  0.00    +0.158 C 
ENDROOT
BRANCH   1   2
ATOM      2  C   ASN A   4      15.169 -18.560   6.571  0.00  0.00    +0.241 C 
ATOM      3  N   LEU A   5      14.149 -18.597   7.421  0.00  0.00    -0.297 N 
ATOM      4  H   LEU A   5      13.928 -19.493   7.901  0.00  0.00    +0.150 HD
ATOM      5  O   ASN A   4      15.499 -17.538   5.960  0.00  0.00    -0.273 OA
BRANCH   3   6
ATOM      6  CA  LEU A   5      13.335 -17.434   7.702  0.00  0.00    +0.149 C 
BRANCH   6   7
ATOM      7  C   LEU A   5      13.661 -16.979   9.119  0.00  0.00    +0.241 C 
ATOM      8  O   LEU A   5      13.159 -17.526  10.103  0.00  0.00    -0.273 OA
ATOM      9  N   MET A   6      14.543 -15.998   9.223  0.00  0.00    -0.297 N 
ATOM     10  H   MET A   6      14.938 -15.567   8.363  0.00  0.00    +0.150 HD
BRANCH   9  11
ATOM     11  CA  MET A   6      14.964 -15.519  10.525  0.00  0.00    +0.149 C 
BRANCH  11  12
ATOM     12  C   MET A   6      14.290 -14.201  10.834  0.00  0.00    +0.241 C 
ATOM     13  N   LEU A   7      14.477 -13.733  12.066  0.00  0.00    -0.298 N 
ATOM     14  H   LEU A   7      15.051 -14.292  12.729  0.00  0.00    +0.150 HD
ATOM     15  O   MET A   6      13.596 -13.642   9.986  0.00  0.00    -0.273 OA
BRANCH  13  16
ATOM     16  CA  LEU A   7      13.912 -12.471  12.526  0.00  0.00    +0.137 C 
BRANCH  16  17
ATOM     17  C   LEU A   7      15.025 -11.544  12.996  0.00  0.00    +0.227 C 
ATOM     18  O   LEU A   7      15.957 -11.988  13.665  0.00  0.00    -0.286 OA
ENDBRANCH  16  17
BRANCH  16  19
ATOM     19  CB  LEU A   7      12.941 -12.712  13.686  0.00  0.00    +0.028 C 
BRANCH  19  20
ATOM     20  CG  LEU A   7      11.692 -13.551  13.435  0.00  0.00    +0.002 C 
ATOM     21  CD2 LEU A   7      10.905 -13.690  14.732  0.00  0.00    +0.000 C 
ATOM     22  CD1 LEU A   7      10.827 -12.943  12.334  0.00  0.00    +0.000 C 
ENDBRANCH  19  20
ENDBRANCH  16  19
ENDBRANCH  13  16
ENDBRANCH  11  12
BRANCH  11  23
ATOM     23  CB  MET A   6      16.482 -15.405  10.580  0.00  0.00    +0.041 C 
BRANCH  23  24
ATOM     24  CG  MET A   6      17.170 -16.758  10.448  0.00  0.00    +0.060 C 
BRANCH  24  25
ATOM     25  SD  MET A   6      18.952 -16.655  10.635  0.00  0.00    -0.139 S 
ATOM     26  CE  MET A   6      19.110 -16.588  12.424  0.00  0.00    +0.069 C 
ENDBRANCH  24  25
ENDBRANCH  23  24
ENDBRANCH  11  23
ENDBRANCH   9  11
ENDBRANCH   6   7
BRANCH   6  27
ATOM     27  CB  LEU A   5      11.852 -17.777   7.546  0.00  0.00    +0.029 C 
BRANCH  27  28
ATOM     28  CG  LEU A   5      11.406 -18.148   6.125  0.00  0.00    +0.002 C 
ATOM     29  CD2 LEU A   5      10.038 -18.805   6.141  0.00  0.00    +0.000 C 
ATOM     30  CD1 LEU A   5      11.409 -16.929   5.201  0.00  0.00    +0.000 C 
ENDBRANCH  27  28
ENDBRANCH   6  27
ENDBRANCH   3   6
ENDBRANCH   1   2
BRANCH   1  33
ATOM     31  C   GLU A   3      15.814 -21.448   8.259  0.00  0.00    +0.241 C 
ATOM     32  O   GLU A   3      16.778 -20.934   8.824  0.00  0.00    -0.273 OA
ATOM     33  N   ASN A   4      15.341 -21.009   7.090  0.00  0.00    -0.297 N 
ATOM     34  H   ASN A   4      14.523 -21.494   6.668  0.00  0.00    +0.150 HD
BRANCH  31  35
ATOM     35  CA  GLU A   3      15.120 -22.674   8.875  0.00  0.00    +0.149 C 
BRANCH  35  38
ATOM     36  C   LEU A   2      12.803 -21.848   8.840  0.00  0.00    +0.241 C 
ATOM     37  O   LEU A   2      13.070 -20.827   9.480  0.00  0.00    -0.273 OA
ATOM     38  N   GLU A   3      13.703 -22.774   8.535  0.00  0.00    -0.297 N 
ATOM     39  H   GLU A   3      13.381 -23.621   8.024  0.00  0.00    +0.150 HD
BRANCH  36  40
ATOM     40  CA  LEU A   2      11.383 -22.117   8.323  0.00  0.00    +0.149 C 
BRANCH  40  42
ATOM     41  C   LYS A   1      11.923 -22.242   5.935  0.00  0.00    +0.238 C 
ATOM     42  N   LEU A   2      11.384 -22.803   7.017  0.00  0.00    -0.297 N 
ATOM     43  H   LEU A   2      10.954 -23.747   6.939  0.00  0.00    +0.150 HD
ATOM     44  O   LYS A   1      12.522 -21.167   5.970  0.00  0.00    -0.274 OA
BRANCH  41  45
ATOM     45  CA  LYS A   1      11.782 -23.009   4.616  0.00  0.00    +0.145 C 
BRANCH  45  46
ATOM     46  N   LYS A   1      12.108 -22.138   3.491  0.00  0.00    -0.238 NA
ATOM     47  H   LYS A   1      12.662 -21.276   3.671  0.00  0.00    +0.142 HD
ENDBRANCH  45  46
BRANCH  45  48
ATOM     48  CB  LYS A   1      12.672 -24.259   4.617  0.00  0.00    +0.026 C 
BRANCH  48  49
ATOM     49  CG  LYS A   1      14.161 -23.991   4.595  0.00  0.00    -0.000 C 
BRANCH  49  50
ATOM     50  CD  LYS A   1      14.929 -25.291   4.699  0.00  0.00    -0.024 C 
BRANCH  50  51
ATOM     51  CE  LYS A   1      16.417 -25.084   4.530  0.00  0.00    -0.086 C 
BRANCH  51  52
ATOM     52  NZ  LYS A   1      17.155 -26.373   4.672  0.00  0.00    +0.380 N 
ATOM     53  HZ1 LYS A   1      16.978 -26.770   5.617  0.00  0.00    -0.089 HD
ATOM     54  HZ2 LYS A   1      18.174 -26.203   4.552  0.00  0.00    -0.089 HD
ATOM     55  HZ3 LYS A   1      16.826 -27.041   3.946  0.00  0.00    -0.089 HD
ENDBRANCH  51  52
ENDBRANCH  50  51
ENDBRANCH  49  50
ENDBRANCH  48  49
ENDBRANCH  45  48
ENDBRANCH  41  45
ENDBRANCH  40  42
BRANCH  40  56
ATOM     56  CB  LEU A   2      10.584 -22.929   9.353  0.00  0.00    +0.029 C 
BRANCH  56  57
ATOM     57  CG  LEU A   2       9.068 -23.018   9.139  0.00  0.00    +0.002 C 
ATOM     58  CD2 LEU A   2       8.450 -23.986  10.131  0.00  0.00    +0.000 C 
ATOM     59  CD1 LEU A   2       8.418 -21.645   9.263  0.00  0.00    +0.000 C 
ENDBRANCH  56  57
ENDBRANCH  40  56
ENDBRANCH  36  40
ENDBRANCH  35  38
BRANCH  35  60
ATOM     60  CB  GLU A   3      15.834 -23.935   8.387  0.00  0.00    +0.041 C 
BRANCH  60  61
ATOM     61  CG  GLU A   3      16.893 -24.451   9.303  0.00  0.00    +0.116 C 
BRANCH  61  62
ATOM     62  CD  GLU A   3      17.733 -25.557   8.670  0.00  0.00    +0.365 C 
ATOM     63  OE2 GLU A   3      18.724 -25.999   9.296  0.00  0.00    -0.246 OA
ATOM     64  OE1 GLU A   3      17.401 -25.990   7.542  0.00  0.00    -0.246 OA
ENDBRANCH  61  62
ENDBRANCH  60  61
ENDBRANCH  35  60
ENDBRANCH  31  35
ENDBRANCH   1  33
BRANCH   1  65
ATOM     65  CB  ASN A   4      16.029 -20.182   4.882  0.00  0.00    +0.114 C 
BRANCH  65  66
ATOM     66  CG  ASN A   4      17.029 -21.283   4.583  0.00  0.00    +0.222 C 
ATOM     67  OD1 ASN A   4      17.815 -21.679   5.448  0.00  0.00    -0.275 OA
ATOM     68  ND2 ASN A   4      17.008 -21.781   3.353  0.00  0.00    -0.329 N 
ATOM     69 HD21 ASN A   4      17.672 -22.536   3.086  0.00  0.00    +0.145 HD
ATOM     70 HD22 ASN A   4      16.328 -21.416   2.656  0.00  0.00    +0.145 HD
ENDBRANCH  65  66
ENDBRANCH   1  65
TORSDOF 33
REMARK  Name = ../refined-set-2016/3d0e/3d0e_pocket.pdb
REMARK  258 active torsions:
REMARK  status: ('A' for Active; 'I' for Inactive)
REMARK    1  A    between atoms: _1  and  _3
REMARK    2  A    between atoms: _3  and  _4
REMARK    3  A    between atoms: _3  and  _6
REMARK    4  A    between atoms: _6  and  _7
REMARK    5  A    between atoms: _10  and  _12
REMARK    6  A    between atoms: _12  and  _13
REMARK    7  A    between atoms: _12  and  _15
REMARK    8  A    between atoms: _15  and  _16
REMARK    9  A    between atoms: _19  and  _21
REMARK   10  A    between atoms: _21  and  _22
REMARK   11  A    between atoms: _24  and  _26
REMARK   12  A    between atoms: _26  and  _27
REMARK   13  A    between atoms: _26  and  _29
REMARK   14  A    between atoms: _29  and  _30
REMARK   15  A    between atoms: _30  and  _31
REMARK   16  A    between atoms: _31  and  _32
REMARK   17  A    between atoms: _32  and  _33
REMARK   18  A    between atoms: _37  and  _39
REMARK   19  A    between atoms: _39  and  _40
REMARK   20  A    between atoms: _42  and  _44
REMARK   21  A    between atoms: _44  and  _45
REMARK   22  A    between atoms: _44  and  _47
REMARK   23  A    between atoms: _47  and  _48
REMARK   24  A    between atoms: _51  and  _53
REMARK   25  A    between atoms: _53  and  _54
REMARK   26  A    between atoms: _53  and  _56
REMARK   27  A    between atoms: _56  and  _57
REMARK   28  A    between atoms: _63  and  _65
REMARK   29  A    between atoms: _65  and  _66
REMARK   30  A    between atoms: _68  and  _70
REMARK   31  A    between atoms: _70  and  _71
REMARK   32  A    between atoms: _70  and  _73
REMARK   33  A    between atoms: _73  and  _74
REMARK   34  A    between atoms: _74  and  _75
REMARK   35  A    between atoms: _75  and  _76
REMARK   36  A    between atoms: _76  and  _77
REMARK   37  A    between atoms: _81  and  _83
REMARK   38  A    between atoms: _83  and  _84
REMARK   39  A    between atoms: _83  and  _86
REMARK   40  A    between atoms: _89  and  _91
REMARK   41  A    between atoms: _91  and  _92
REMARK   42  A    between atoms: _91  and  _94
REMARK   43  A    between atoms: _94  and  _95
REMARK   44  A    between atoms: _98  and  _100
REMARK   45  A    between atoms: _100  and  _101
REMARK   46  A    between atoms: _100  and  _103
REMARK   47  A    between atoms: _103  and  _104
REMARK   48  A    between atoms: _107  and  _109
REMARK   49  A    between atoms: _109  and  _110
REMARK   50  A    between atoms: _109  and  _112
REMARK   51  A    between atoms: _112  and  _113
REMARK   52  A    between atoms: _118  and  _119
REMARK   53  A    between atoms: _121  and  _123
REMARK   54  A    between atoms: _123  and  _124
REMARK   55  A    between atoms: _127  and  _129
REMARK   56  A    between atoms: _129  and  _130
REMARK   57  A    between atoms: _129  and  _132
REMARK   58  A    between atoms: _132  and  _133
REMARK   59  A    between atoms: _133  and  _134
REMARK   60  A    between atoms: _136  and  _138
REMARK   61  A    between atoms: _138  and  _139
REMARK   62  A    between atoms: _138  and  _141
REMARK   63  A    between atoms: _141  and  _142
REMARK   64  A    between atoms: _142  and  _143
REMARK   65  A    between atoms: _143  and  _144
REMARK   66  A    between atoms: _144  and  _145
REMARK   67  A    between atoms: _149  and  _151
REMARK   68  A    between atoms: _151  and  _152
REMARK   69  A    between atoms: _151  and  _154
REMARK   70  A    between atoms: _154  and  _155
REMARK   71  A    between atoms: _158  and  _160
REMARK   72  A    between atoms: _160  and  _161
REMARK   73  A    between atoms: _160  and  _163
REMARK   74  A    between atoms: _163  and  _164
REMARK   75  A    between atoms: _167  and  _169
REMARK   76  A    between atoms: _169  and  _170
REMARK   77  A    between atoms: _169  and  _172
REMARK   78  A    between atoms: _172  and  _173
REMARK   79  A    between atoms: _173  and  _174
REMARK   80  A    between atoms: _177  and  _179
REMARK   81  A    between atoms: _179  and  _180
REMARK   82  A    between atoms: _179  and  _182
REMARK   83  A    between atoms: _182  and  _183
REMARK   84  A    between atoms: _185  and  _187
REMARK   85  A    between atoms: _187  and  _188
REMARK   86  A    between atoms: _187  and  _190
REMARK   87  A    between atoms: _190  and  _191
REMARK   88  A    between atoms: _194  and  _196
REMARK   89  A    between atoms: _196  and  _197
REMARK   90  A    between atoms: _196  and  _199
REMARK   91  A    between atoms: _199  and  _200
REMARK   92  A    between atoms: _203  and  _205
REMARK   93  A    between atoms: _205  and  _206
REMARK   94  A    between atoms: _205  and  _208
REMARK   95  A    between atoms: _208  and  _209
REMARK   96  A    between atoms: _212  and  _214
REMARK   97  A    between atoms: _214  and  _215
REMARK   98  A    between atoms: _218  and  _220
REMARK   99  A    between atoms: _220  and  _221
REMARK  100  A    between atoms: _220  and  _223
REMARK  101  A    between atoms: _223  and  _224
REMARK  102  A    between atoms: _227  and  _229
REMARK  103  A    between atoms: _229  and  _230
REMARK  104  A    between atoms: _229  and  _232
REMARK  105  A    between atoms: _232  and  _233
REMARK  106  A    between atoms: _233  and  _234
REMARK  107  A    between atoms: _234  and  _235
REMARK  108  A    between atoms: _235  and  _236
REMARK  109  A    between atoms: _240  and  _242
REMARK  110  A    between atoms: _242  and  _243
REMARK  111  A    between atoms: _242  and  _245
REMARK  112  A    between atoms: _245  and  _246
REMARK  113  A    between atoms: _251  and  _252
REMARK  114  A    between atoms: _254  and  _256
REMARK  115  A    between atoms: _256  and  _257
REMARK  116  A    between atoms: _260  and  _262
REMARK  117  A    between atoms: _262  and  _263
REMARK  118  A    between atoms: _262  and  _265
REMARK  119  A    between atoms: _267  and  _269
REMARK  120  A    between atoms: _269  and  _270
REMARK  121  A    between atoms: _269  and  _272
REMARK  122  A    between atoms: _272  and  _273
REMARK  123  A    between atoms: _279  and  _281
REMARK  124  A    between atoms: _281  and  _282
REMARK  125  A    between atoms: _281  and  _284
REMARK  126  A    between atoms: _287  and  _289
REMARK  127  A    between atoms: _289  and  _290
REMARK  128  A    between atoms: _289  and  _292
REMARK  129  A    between atoms: _292  and  _293
REMARK  130  A    between atoms: _293  and  _294
REMARK  131  A    between atoms: _296  and  _298
REMARK  132  A    between atoms: _298  and  _299
REMARK  133  A    between atoms: _298  and  _301
REMARK  134  A    between atoms: _301  and  _302
REMARK  135  A    between atoms: _302  and  _303
REMARK  136  A    between atoms: _306  and  _308
REMARK  137  A    between atoms: _308  and  _309
REMARK  138  A    between atoms: _308  and  _311
REMARK  139  A    between atoms: _311  and  _312
REMARK  140  A    between atoms: _317  and  _318
REMARK  141  A    between atoms: _320  and  _322
REMARK  142  A    between atoms: _322  and  _323
REMARK  143  A    between atoms: _326  and  _328
REMARK  144  A    between atoms: _328  and  _329
REMARK  145  A    between atoms: _328  and  _331
REMARK  146  A    between atoms: _331  and  _332
REMARK  147  A    between atoms: _337  and  _339
REMARK  148  A    between atoms: _339  and  _340
REMARK  149  A    between atoms: _342  and  _344
REMARK  150  A    between atoms: _344  and  _345
REMARK  151  A    between atoms: _347  and  _349
REMARK  152  A    between atoms: _349  and  _350
REMARK  153  A    between atoms: _349  and  _352
REMARK  154  A    between atoms: _352  and  _353
REMARK  155  A    between atoms: _353  and  _354
REMARK  156  A    between atoms: _357  and  _359
REMARK  157  A    between atoms: _359  and  _360
REMARK  158  A    between atoms: _359  and  _362
REMARK  159  A    between atoms: _362  and  _363
REMARK  160  A    between atoms: _369  and  _371
REMARK  161  A    between atoms: _371  and  _372
REMARK  162  A    between atoms: _371  and  _374
REMARK  163  A    between atoms: _374  and  _375
REMARK  164  A    between atoms: _381  and  _383
REMARK  165  A    between atoms: _383  and  _384
REMARK  166  A    between atoms: _383  and  _386
REMARK  167  A    between atoms: _386  and  _387
REMARK  168  A    between atoms: _392  and  _393
REMARK  169  A    between atoms: _395  and  _397
REMARK  170  A    between atoms: _397  and  _398
REMARK  171  A    between atoms: _397  and  _400
REMARK  172  A    between atoms: _400  and  _401
REMARK  173  A    between atoms: _404  and  _406
REMARK  174  A    between atoms: _406  and  _407
REMARK  175  A    between atoms: _406  and  _409
REMARK  176  A    between atoms: _409  and  _410
REMARK  177  A    between atoms: _410  and  _411
REMARK  178  A    between atoms: _411  and  _412
REMARK  179  A    between atoms: _412  and  _413
REMARK  180  A    between atoms: _417  and  _419
REMARK  181  A    between atoms: _419  and  _420
REMARK  182  A    between atoms: _419  and  _422
REMARK  183  A    between atoms: _422  and  _423
REMARK  184  A    between atoms: _426  and  _428
REMARK  185  A    between atoms: _428  and  _429
REMARK  186  A    between atoms: _428  and  _431
REMARK  187  A    between atoms: _431  and  _432
REMARK  188  A    between atoms: _432  and  _433
REMARK  189  A    between atoms: _436  and  _438
REMARK  190  A    between atoms: _438  and  _439
REMARK  191  A    between atoms: _438  and  _441
REMARK  192  A    between atoms: _441  and  _442
REMARK  193  A    between atoms: _447  and  _449
REMARK  194  A    between atoms: _449  and  _450
REMARK  195  A    between atoms: _449  and  _452
REMARK  196  A    between atoms: _452  and  _453
REMARK  197  A    between atoms: _456  and  _458
REMARK  198  A    between atoms: _458  and  _459
REMARK  199  A    between atoms: _458  and  _461
REMARK  200  A    between atoms: _461  and  _462
REMARK  201  A    between atoms: _462  and  _463
REMARK  202  A    between atoms: _465  and  _467
REMARK  203  A    between atoms: _467  and  _468
REMARK  204  A    between atoms: _467  and  _470
REMARK  205  A    between atoms: _470  and  _471
REMARK  206  A    between atoms: _474  and  _476
REMARK  207  A    between atoms: _476  and  _477
REMARK  208  A    between atoms: _476  and  _479
REMARK  209  A    between atoms: _479  and  _480
REMARK  210  A    between atoms: _480  and  _481
REMARK  211  A    between atoms: _481  and  _482
REMARK  212  A    between atoms: _482  and  _483
REMARK  213  A    between atoms: _487  and  _489
REMARK  214  A    between atoms: _489  and  _490
REMARK  215  A    between atoms: _489  and  _492
REMARK  216  A    between atoms: _492  and  _493
REMARK  217  A    between atoms: _496  and  _498
REMARK  218  A    between atoms: _498  and  _499
REMARK  219  A    between atoms: _498  and  _501
REMARK  220  A    between atoms: _501  and  _502
REMARK  221  A    between atoms: _505  and  _507
REMARK  222  A    between atoms: _507  and  _508
REMARK  223  A    between atoms: _507  and  _510
REMARK  224  A    between atoms: _510  and  _511
REMARK  225  A    between atoms: _514  and  _516
REMARK  226  A    between atoms: _516  and  _517
REMARK  227  A    between atoms: _516  and  _519
REMARK  228  A    between atoms: _519  and  _520
REMARK  229  A    between atoms: _526  and  _528
REMARK  230  A    between atoms: _528  and  _529
REMARK  231  A    between atoms: _531  and  _533
REMARK  232  A    between atoms: _533  and  _534
REMARK  233  A    between atoms: _533  and  _536
REMARK  234  A    between atoms: _536  and  _537
REMARK  235  A    between atoms: _540  and  _542
REMARK  236  A    between atoms: _542  and  _543
REMARK  237  A    between atoms: _542  and  _545
REMARK  238  A    between atoms: _547  and  _549
REMARK  239  A    between atoms: _549  and  _550
REMARK  240  A    between atoms: _549  and  _552
REMARK  241  A    between atoms: _552  and  _553
REMARK  242  A    between atoms: _559  and  _561
REMARK  243  A    between atoms: _561  and  _562
REMARK  244  A    between atoms: _561  and  _564
REMARK  245  A    between atoms: _564  and  _565
REMARK  246  A    between atoms: _568  and  _570
REMARK  247  A    between atoms: _570  and  _571
REMARK  248  A    between atoms: _570  and  _573
REMARK  249  A    between atoms: _573  and  _574
REMARK  250  A    between atoms: _574  and  _575
REMARK  251  A    between atoms: _578  and  _580
REMARK  252  A    between atoms: _580  and  _581
REMARK  253  A    between atoms: _580  and  _583
REMARK  254  A    between atoms: _583  and  _584
REMARK  255  A    between atoms: _590  and  _592
REMARK  256  A    between atoms: _592  and  _593
REMARK  257  A    between atoms: _592  and  _595
REMARK  258  A    between atoms: _595  and  _596
REMARK                            x       y       z     vdW  Elec       q    Type
REMARK                         _______ _______ _______ _____ _____    ______ ____
ROOT
ATOM      1  CA  ASP A   4      21.019 -18.665   2.950  0.00  0.00    +0.160 C 
ENDROOT
BRANCH   1   3
ATOM      2  C   THR A   3      19.232 -17.296   3.976  0.00  0.00    +0.243 C 
ATOM      3  N   ASP A   4      20.519 -17.538   3.751  0.00  0.00    -0.296 N 
ATOM      4  H   ASP A   4      21.217 -16.889   4.168  0.00  0.00    +0.150 HD
ATOM      5  O   THR A   3      18.320 -17.982   3.517  0.00  0.00    -0.273 OA
BRANCH   2   6
ATOM      6  CA  THR A   3      18.936 -16.097   4.865  0.00  0.00    +0.176 C 
BRANCH   6   8
ATOM      7  C   ILE A   2      17.056 -14.564   4.521  0.00  0.00    +0.241 C 
ATOM      8  N   THR A   3      17.514 -15.774   4.828  0.00  0.00    -0.295 N 
ATOM      9  H   THR A   3      16.828 -16.523   5.052  0.00  0.00    +0.150 HD
ATOM     10  O   ILE A   2      17.788 -13.618   4.241  0.00  0.00    -0.273 OA
BRANCH   7  11
ATOM     11  CA  ILE A   2      15.536 -14.386   4.549  0.00  0.00    +0.148 C 
BRANCH  11  14
ATOM     12  C   LYS A   1      15.396 -13.037   6.574  0.00  0.00    +0.238 C 
ATOM     13  O   LYS A   1      15.733 -13.979   7.291  0.00  0.00    -0.274 OA
ATOM     14  N   ILE A   2      15.219 -13.153   5.261  0.00  0.00    -0.297 N 
ATOM     15  H   ILE A   2      14.844 -12.343   4.727  0.00  0.00    +0.150 HD
BRANCH  12  16
ATOM     16  CA  LYS A   1      15.126 -11.665   7.177  0.00  0.00    +0.145 C 
BRANCH  16  17
ATOM     17  N   LYS A   1      13.876 -11.762   7.917  0.00  0.00    -0.238 NA
ATOM     18  H   LYS A   1      13.726 -12.594   8.522  0.00  0.00    +0.142 HD
ENDBRANCH  16  17
BRANCH  16  19
ATOM     19  CB  LYS A   1      16.286 -11.257   8.096  0.00  0.00    +0.026 C 
BRANCH  19  20
ATOM     20  CG  LYS A   1      16.353  -9.772   8.430  0.00  0.00    -0.000 C 
BRANCH  20  21
ATOM     21  CD  LYS A   1      16.793  -8.956   7.221  0.00  0.00    -0.024 C 
BRANCH  21  22
ATOM     22  CE  LYS A   1      17.191  -7.538   7.586  0.00  0.00    -0.086 C 
BRANCH  22  23
ATOM     23  NZ  LYS A   1      17.824  -6.840   6.416  0.00  0.00    +0.380 N 
ATOM     24  HZ1 LYS A   1      18.087  -5.872   6.692  0.00  0.00    -0.089 HD
ATOM     25  HZ2 LYS A   1      18.675  -7.361   6.122  0.00  0.00    -0.089 HD
ATOM     26  HZ3 LYS A   1      17.147  -6.805   5.627  0.00  0.00    -0.089 HD
ENDBRANCH  22  23
ENDBRANCH  21  22
ENDBRANCH  20  21
ENDBRANCH  19  20
ENDBRANCH  16  19
ENDBRANCH  12  16
ENDBRANCH  11  14
BRANCH  11  27
ATOM     27  CB  ILE A   2      14.994 -14.375   3.108  0.00  0.00    +0.027 C 
ATOM     28  CG2 ILE A   2      15.400 -15.652   2.379  0.00  0.00    +0.002 C 
BRANCH  27  29
ATOM     29  CG1 ILE A   2      13.465 -14.230   3.099  0.00  0.00    +0.002 C 
ATOM     30  CD1 ILE A   2      12.860 -14.203   1.696  0.00  0.00    +0.000 C 
ENDBRANCH  27  29
ENDBRANCH  11  27
ENDBRANCH   7  11
ENDBRANCH   6   8
BRANCH   6  31
ATOM     31  CB  THR A   3      19.400 -16.426   6.305  0.00  0.00    +0.137 C 
ATOM     32  CG2 THR A   3      19.011 -15.309   7.272  0.00  0.00    +0.034 C 
BRANCH  31  33
ATOM     33  OG1 THR A   3      18.806 -17.657   6.732  0.00  0.00    -0.382 OA
ATOM     34  HG1 THR A   3      19.105 -17.864   7.653  0.00  0.00    +0.210 HD
ENDBRANCH  31  33
ENDBRANCH   6  31
ENDBRANCH   2   6
ENDBRANCH   1   3
BRANCH   1  35
ATOM     35  C   ASP A   4      20.556 -18.624   1.488  0.00  0.00    +0.241 C 
ATOM     36  O   ASP A   4      19.584 -19.276   1.112  0.00  0.00    -0.273 OA
ATOM     37  N   PHE A   5      21.287 -17.872   0.667  0.00  0.00    -0.297 N 
ATOM     38  H   PHE A   5      22.106 -17.362   1.055  0.00  0.00    +0.150 HD
BRANCH  37  39
ATOM     39  CA  PHE A   5      20.986 -17.733  -0.762  0.00  0.00    +0.153 C 
BRANCH  39  40
ATOM     40  C   PHE A   5      21.797 -18.704  -1.636  0.00  0.00    +0.241 C 
ATOM     41  N   GLY A   6      22.213 -19.829  -1.054  0.00  0.00    -0.295 N 
ATOM     42  H   GLY A   6      21.902 -20.038  -0.084  0.00  0.00    +0.150 HD
ATOM     43  O   PHE A   5      21.999 -18.458  -2.826  0.00  0.00    -0.273 OA
BRANCH  41  44
ATOM     44  CA  GLY A   6      23.094 -20.781  -1.735  0.00  0.00    +0.176 C 
BRANCH  44  45
ATOM     45  C   GLY A   6      22.473 -21.693  -2.782  0.00  0.00    +0.243 C 
ATOM     46  N   LEU A   7      21.173 -21.550  -3.044  0.00  0.00    -0.297 N 
ATOM     47  H   LEU A   7      20.618 -20.872  -2.484  0.00  0.00    +0.150 HD
ATOM     48  O   GLY A   6      23.169 -22.538  -3.337  0.00  0.00    -0.273 OA
BRANCH  46  49
ATOM     49  CA  LEU A   7      20.500 -22.323  -4.101  0.00  0.00    +0.149 C 
BRANCH  49  50
ATOM     50  C   LEU A   7      19.762 -21.430  -5.108  0.00  0.00    +0.241 C 
ATOM     51  N   CYS A   8      20.081 -20.140  -5.128  0.00  0.00    -0.297 N 
ATOM     52  H   CYS A   8      20.805 -19.787  -4.470  0.00  0.00    +0.150 HD
ATOM     53  O   LEU A   7      18.925 -21.913  -5.864  0.00  0.00    -0.273 OA
BRANCH  51  54
ATOM     54  CA  CYS A   8      19.440 -19.204  -6.052  0.00  0.00    +0.149 C 
BRANCH  54  55
ATOM     55  C   CYS A   8      19.779 -19.513  -7.506  0.00  0.00    +0.228 C 
ATOM     56  O   CYS A   8      20.844 -20.070  -7.803  0.00  0.00    -0.286 OA
ENDBRANCH  54  55
BRANCH  54  57
ATOM     57  CB  CYS A   8      19.871 -17.765  -5.746  0.00  0.00    +0.096 C 
ATOM     58  SG  CYS A   8      19.042 -17.064  -4.336  0.00  0.00    -0.080 S 
ENDBRANCH  54  57
ENDBRANCH  51  54
ENDBRANCH  49  50
BRANCH  49  59
ATOM     59  CB  LEU A   7      19.508 -23.329  -3.491  0.00  0.00    +0.029 C 
BRANCH  59  60
ATOM     60  CG  LEU A   7      20.056 -24.503  -2.684  0.00  0.00    +0.002 C 
ATOM     61  CD2 LEU A   7      18.896 -25.381  -2.216  0.00  0.00    +0.000 C 
ATOM     62  CD1 LEU A   7      21.055 -25.314  -3.492  0.00  0.00    +0.000 C 
ENDBRANCH  59  60
ENDBRANCH  49  59
ENDBRANCH  46  49
ENDBRANCH  44  45
ENDBRANCH  41  44
ENDBRANCH  39  40
BRANCH  39  63
ATOM     63  CB  PHE A   5      21.216 -16.278  -1.195  0.00  0.00    +0.055 C 
BRANCH  63  64
ATOM     64  CG  PHE A   5      20.235 -15.317  -0.592  0.00  0.00    -0.020 A 
ATOM     65  CD2 PHE A   5      20.395 -14.866   0.708  0.00  0.00    -0.004 A 
ATOM     66  CE2 PHE A   5      19.481 -13.982   1.275  0.00  0.00    -0.000 A 
ATOM     67  CZ  PHE A   5      18.391 -13.548   0.539  0.00  0.00    -0.000 A 
ATOM     68  CE1 PHE A   5      18.216 -13.996  -0.756  0.00  0.00    -0.000 A 
ATOM     69  CD1 PHE A   5      19.135 -14.879  -1.315  0.00  0.00    -0.004 A 
ENDBRANCH  63  64
ENDBRANCH  39  63
ENDBRANCH  37  39
ENDBRANCH   1  35
BRANCH   1  70
ATOM     70  CB  ASP A   4      20.674 -20.008   3.604  0.00  0.00    +0.143 C 
BRANCH  70  71
ATOM     71  CG  ASP A   4      21.644 -21.119   3.209  0.00  0.00    +0.367 C 
ATOM     72  OD2 ASP A   4      21.700 -22.135   3.933  0.00  0.00    -0.246 OA
ATOM     73  OD1 ASP A   4      22.351 -20.980   2.182  0.00  0.00    -0.246 OA
ENDBRANCH  70  71
ENDBRANCH   1  70
TORSDOF 32
REMARK  Name = ../refined-set-2016/3d0e/3d0e_pocket.pdb
REMARK  258 active torsions:
REMARK  status: ('A' for Active; 'I' for Inactive)
REMARK    1  A    between atoms: _1  and  _3
REMARK    2  A    between atoms: _3  and  _4
REMARK    3  A    between atoms: _3  and  _6
REMARK    4  A    between atoms: _6  and  _7
REMARK    5  A    between atoms: _10  and  _12
REMARK    6  A    between atoms: _12  and  _13
REMARK    7  A    between atoms: _12  and  _15
REMARK    8  A    between atoms: _15  and  _16
REMARK    9  A    between atoms: _19  and  _21
REMARK   10  A    between atoms: _21  and  _22
REMARK   11  A    between atoms: _24  and  _26
REMARK   12  A    between atoms: _26  and  _27
REMARK   13  A    between atoms: _26  and  _29
REMARK   14  A    between atoms: _29  and  _30
REMARK   15  A    between atoms: _30  and  _31
REMARK   16  A    between atoms: _31  and  _32
REMARK   17  A    between atoms: _32  and  _33
REMARK   18  A    between atoms: _37  and  _39
REMARK   19  A    between atoms: _39  and  _40
REMARK   20  A    between atoms: _42  and  _44
REMARK   21  A    between atoms: _44  and  _45
REMARK   22  A    between atoms: _44  and  _47
REMARK   23  A    between atoms: _47  and  _48
REMARK   24  A    between atoms: _51  and  _53
REMARK   25  A    between atoms: _53  and  _54
REMARK   26  A    between atoms: _53  and  _56
REMARK   27  A    between atoms: _56  and  _57
REMARK   28  A    between atoms: _63  and  _65
REMARK   29  A    between atoms: _65  and  _66
REMARK   30  A    between atoms: _68  and  _70
REMARK   31  A    between atoms: _70  and  _71
REMARK   32  A    between atoms: _70  and  _73
REMARK   33  A    between atoms: _73  and  _74
REMARK   34  A    between atoms: _74  and  _75
REMARK   35  A    between atoms: _75  and  _76
REMARK   36  A    between atoms: _76  and  _77
REMARK   37  A    between atoms: _81  and  _83
REMARK   38  A    between atoms: _83  and  _84
REMARK   39  A    between atoms: _83  and  _86
REMARK   40  A    between atoms: _89  and  _91
REMARK   41  A    between atoms: _91  and  _92
REMARK   42  A    between atoms: _91  and  _94
REMARK   43  A    between atoms: _94  and  _95
REMARK   44  A    between atoms: _98  and  _100
REMARK   45  A    between atoms: _100  and  _101
REMARK   46  A    between atoms: _100  and  _103
REMARK   47  A    between atoms: _103  and  _104
REMARK   48  A    between atoms: _107  and  _109
REMARK   49  A    between atoms: _109  and  _110
REMARK   50  A    between atoms: _109  and  _112
REMARK   51  A    between atoms: _112  and  _113
REMARK   52  A    between atoms: _118  and  _119
REMARK   53  A    between atoms: _121  and  _123
REMARK   54  A    between atoms: _123  and  _124
REMARK   55  A    between atoms: _127  and  _129
REMARK   56  A    between atoms: _129  and  _130
REMARK   57  A    between atoms: _129  and  _132
REMARK   58  A    between atoms: _132  and  _133
REMARK   59  A    between atoms: _133  and  _134
REMARK   60  A    between atoms: _136  and  _138
REMARK   61  A    between atoms: _138  and  _139
REMARK   62  A    between atoms: _138  and  _141
REMARK   63  A    between atoms: _141  and  _142
REMARK   64  A    between atoms: _142  and  _143
REMARK   65  A    between atoms: _143  and  _144
REMARK   66  A    between atoms: _144  and  _145
REMARK   67  A    between atoms: _149  and  _151
REMARK   68  A    between atoms: _151  and  _152
REMARK   69  A    between atoms: _151  and  _154
REMARK   70  A    between atoms: _154  and  _155
REMARK   71  A    between atoms: _158  and  _160
REMARK   72  A    between atoms: _160  and  _161
REMARK   73  A    between atoms: _160  and  _163
REMARK   74  A    between atoms: _163  and  _164
REMARK   75  A    between atoms: _167  and  _169
REMARK   76  A    between atoms: _169  and  _170
REMARK   77  A    between atoms: _169  and  _172
REMARK   78  A    between atoms: _172  and  _173
REMARK   79  A    between atoms: _173  and  _174
REMARK   80  A    between atoms: _177  and  _179
REMARK   81  A    between atoms: _179  and  _180
REMARK   82  A    between atoms: _179  and  _182
REMARK   83  A    between atoms: _182  and  _183
REMARK   84  A    between atoms: _185  and  _187
REMARK   85  A    between atoms: _187  and  _188
REMARK   86  A    between atoms: _187  and  _190
REMARK   87  A    between atoms: _190  and  _191
REMARK   88  A    between atoms: _194  and  _196
REMARK   89  A    between atoms: _196  and  _197
REMARK   90  A    between atoms: _196  and  _199
REMARK   91  A    between atoms: _199  and  _200
REMARK   92  A    between atoms: _203  and  _205
REMARK   93  A    between atoms: _205  and  _206
REMARK   94  A    between atoms: _205  and  _208
REMARK   95  A    between atoms: _208  and  _209
REMARK   96  A    between atoms: _212  and  _214
REMARK   97  A    between atoms: _214  and  _215
REMARK   98  A    between atoms: _218  and  _220
REMARK   99  A    between atoms: _220  and  _221
REMARK  100  A    between atoms: _220  and  _223
REMARK  101  A    between atoms: _223  and  _224
REMARK  102  A    between atoms: _227  and  _229
REMARK  103  A    between atoms: _229  and  _230
REMARK  104  A    between atoms: _229  and  _232
REMARK  105  A    between atoms: _232  and  _233
REMARK  106  A    between atoms: _233  and  _234
REMARK  107  A    between atoms: _234  and  _235
REMARK  108  A    between atoms: _235  and  _236
REMARK  109  A    between atoms: _240  and  _242
REMARK  110  A    between atoms: _242  and  _243
REMARK  111  A    between atoms: _242  and  _245
REMARK  112  A    between atoms: _245  and  _246
REMARK  113  A    between atoms: _251  and  _252
REMARK  114  A    between atoms: _254  and  _256
REMARK  115  A    between atoms: _256  and  _257
REMARK  116  A    between atoms: _260  and  _262
REMARK  117  A    between atoms: _262  and  _263
REMARK  118  A    between atoms: _262  and  _265
REMARK  119  A    between atoms: _267  and  _269
REMARK  120  A    between atoms: _269  and  _270
REMARK  121  A    between atoms: _269  and  _272
REMARK  122  A    between atoms: _272  and  _273
REMARK  123  A    between atoms: _279  and  _281
REMARK  124  A    between atoms: _281  and  _282
REMARK  125  A    between atoms: _281  and  _284
REMARK  126  A    between atoms: _287  and  _289
REMARK  127  A    between atoms: _289  and  _290
REMARK  128  A    between atoms: _289  and  _292
REMARK  129  A    between atoms: _292  and  _293
REMARK  130  A    between atoms: _293  and  _294
REMARK  131  A    between atoms: _296  and  _298
REMARK  132  A    between atoms: _298  and  _299
REMARK  133  A    between atoms: _298  and  _301
REMARK  134  A    between atoms: _301  and  _302
REMARK  135  A    between atoms: _302  and  _303
REMARK  136  A    between atoms: _306  and  _308
REMARK  137  A    between atoms: _308  and  _309
REMARK  138  A    between atoms: _308  and  _311
REMARK  139  A    between atoms: _311  and  _312
REMARK  140  A    between atoms: _317  and  _318
REMARK  141  A    between atoms: _320  and  _322
REMARK  142  A    between atoms: _322  and  _323
REMARK  143  A    between atoms: _326  and  _328
REMARK  144  A    between atoms: _328  and  _329
REMARK  145  A    between atoms: _328  and  _331
REMARK  146  A    between atoms: _331  and  _332
REMARK  147  A    between atoms: _337  and  _339
REMARK  148  A    between atoms: _339  and  _340
REMARK  149  A    between atoms: _342  and  _344
REMARK  150  A    between atoms: _344  and  _345
REMARK  151  A    between atoms: _347  and  _349
REMARK  152  A    between atoms: _349  and  _350
REMARK  153  A    between atoms: _349  and  _352
REMARK  154  A    between atoms: _352  and  _353
REMARK  155  A    between atoms: _353  and  _354
REMARK  156  A    between atoms: _357  and  _359
REMARK  157  A    between atoms: _359  and  _360
REMARK  158  A    between atoms: _359  and  _362
REMARK  159  A    between atoms: _362  and  _363
REMARK  160  A    between atoms: _369  and  _371
REMARK  161  A    between atoms: _371  and  _372
REMARK  162  A    between atoms: _371  and  _374
REMARK  163  A    between atoms: _374  and  _375
REMARK  164  A    between atoms: _381  and  _383
REMARK  165  A    between atoms: _383  and  _384
REMARK  166  A    between atoms: _383  and  _386
REMARK  167  A    between atoms: _386  and  _387
REMARK  168  A    between atoms: _392  and  _393
REMARK  169  A    between atoms: _395  and  _397
REMARK  170  A    between atoms: _397  and  _398
REMARK  171  A    between atoms: _397  and  _400
REMARK  172  A    between atoms: _400  and  _401
REMARK  173  A    between atoms: _404  and  _406
REMARK  174  A    between atoms: _406  and  _407
REMARK  175  A    between atoms: _406  and  _409
REMARK  176  A    between atoms: _409  and  _410
REMARK  177  A    between atoms: _410  and  _411
REMARK  178  A    between atoms: _411  and  _412
REMARK  179  A    between atoms: _412  and  _413
REMARK  180  A    between atoms: _417  and  _419
REMARK  181  A    between atoms: _419  and  _420
REMARK  182  A    between atoms: _419  and  _422
REMARK  183  A    between atoms: _422  and  _423
REMARK  184  A    between atoms: _426  and  _428
REMARK  185  A    between atoms: _428  and  _429
REMARK  186  A    between atoms: _428  and  _431
REMARK  187  A    between atoms: _431  and  _432
REMARK  188  A    between atoms: _432  and  _433
REMARK  189  A    between atoms: _436  and  _438
REMARK  190  A    between atoms: _438  and  _439
REMARK  191  A    between atoms: _438  and  _441
REMARK  192  A    between atoms: _441  and  _442
REMARK  193  A    between atoms: _447  and  _449
REMARK  194  A    between atoms: _449  and  _450
REMARK  195  A    between atoms: _449  and  _452
REMARK  196  A    between atoms: _452  and  _453
REMARK  197  A    between atoms: _456  and  _458
REMARK  198  A    between atoms: _458  and  _459
REMARK  199  A    between atoms: _458  and  _461
REMARK  200  A    between atoms: _461  and  _462
REMARK  201  A    between atoms: _462  and  _463
REMARK  202  A    between atoms: _465  and  _467
REMARK  203  A    between atoms: _467  and  _468
REMARK  204  A    between atoms: _467  and  _470
REMARK  205  A    between atoms: _470  and  _471
REMARK  206  A    between atoms: _474  and  _476
REMARK  207  A    between atoms: _476  and  _477
REMARK  208  A    between atoms: _476  and  _479
REMARK  209  A    between atoms: _479  and  _480
REMARK  210  A    between atoms: _480  and  _481
REMARK  211  A    between atoms: _481  and  _482
REMARK  212  A    between atoms: _482  and  _483
REMARK  213  A    between atoms: _487  and  _489
REMARK  214  A    between atoms: _489  and  _490
REMARK  215  A    between atoms: _489  and  _492
REMARK  216  A    between atoms: _492  and  _493
REMARK  217  A    between atoms: _496  and  _498
REMARK  218  A    between atoms: _498  and  _499
REMARK  219  A    between atoms: _498  and  _501
REMARK  220  A    between atoms: _501  and  _502
REMARK  221  A    between atoms: _505  and  _507
REMARK  222  A    between atoms: _507  and  _508
REMARK  223  A    between atoms: _507  and  _510
REMARK  224  A    between atoms: _510  and  _511
REMARK  225  A    between atoms: _514  and  _516
REMARK  226  A    between atoms: _516  and  _517
REMARK  227  A    between atoms: _516  and  _519
REMARK  228  A    between atoms: _519  and  _520
REMARK  229  A    between atoms: _526  and  _528
REMARK  230  A    between atoms: _528  and  _529
REMARK  231  A    between atoms: _531  and  _533
REMARK  232  A    between atoms: _533  and  _534
REMARK  233  A    between atoms: _533  and  _536
REMARK  234  A    between atoms: _536  and  _537
REMARK  235  A    between atoms: _540  and  _542
REMARK  236  A    between atoms: _542  and  _543
REMARK  237  A    between atoms: _542  and  _545
REMARK  238  A    between atoms: _547  and  _549
REMARK  239  A    between atoms: _549  and  _550
REMARK  240  A    between atoms: _549  and  _552
REMARK  241  A    between atoms: _552  and  _553
REMARK  242  A    between atoms: _559  and  _561
REMARK  243  A    between atoms: _561  and  _562
REMARK  244  A    between atoms: _561  and  _564
REMARK  245  A    between atoms: _564  and  _565
REMARK  246  A    between atoms: _568  and  _570
REMARK  247  A    between atoms: _570  and  _571
REMARK  248  A    between atoms: _570  and  _573
REMARK  249  A    between atoms: _573  and  _574
REMARK  250  A    between atoms: _574  and  _575
REMARK  251  A    between atoms: _578  and  _580
REMARK  252  A    between atoms: _580  and  _581
REMARK  253  A    between atoms: _580  and  _583
REMARK  254  A    between atoms: _583  and  _584
REMARK  255  A    between atoms: _590  and  _592
REMARK  256  A    between atoms: _592  and  _593
REMARK  257  A    between atoms: _592  and  _595
REMARK  258  A    between atoms: _595  and  _596
REMARK                            x       y       z     vdW  Elec       q    Type
REMARK                         _______ _______ _______ _____ _____    ______ ____
ROOT
ATOM      1  C   PHE A   1      19.686 -21.220  19.814  0.00  0.00    +0.239 C 
ATOM      2  O   PHE A   1      19.725 -21.096  21.037  0.00  0.00    -0.274 OA
ATOM      3  N   ASP A   2      19.745 -22.400  19.203  0.00  0.00    -0.298 N 
ATOM      4  H   ASP A   2      19.797 -22.431  18.165  0.00  0.00    +0.150 HD
ENDROOT
BRANCH   1   5
ATOM      5  CA  PHE A   1      19.560 -19.991  18.920  0.00  0.00    +0.149 C 
BRANCH   5   6
ATOM      6  N   PHE A   1      18.747 -19.014  19.631  0.00  0.00    -0.238 NA
ATOM      7  H   PHE A   1      19.051 -18.723  20.582  0.00  0.00    +0.142 HD
ENDBRANCH   5   6
BRANCH   5   8
ATOM      8  CB  PHE A   1      20.941 -19.409  18.590  0.00  0.00    +0.053 C 
BRANCH   8   9
ATOM      9  CG  PHE A   1      20.910 -18.347  17.518  0.00  0.00    -0.020 A 
ATOM     10  CD2 PHE A   1      20.588 -17.031  17.832  0.00  0.00    -0.004 A 
ATOM     11  CE2 PHE A   1      20.541 -16.053  16.850  0.00  0.00    -0.000 A 
ATOM     12  CZ  PHE A   1      20.819 -16.375  15.537  0.00  0.00    -0.000 A 
ATOM     13  CE1 PHE A   1      21.137 -17.685  15.203  0.00  0.00    -0.000 A 
ATOM     14  CD1 PHE A   1      21.183 -18.666  16.195  0.00  0.00    -0.004 A 
ENDBRANCH   8   9
ENDBRANCH   5   8
ENDBRANCH   1   5
BRANCH   3  15
ATOM     15  CA  ASP A   2      19.738 -23.653  19.953  0.00  0.00    +0.148 C 
BRANCH  15  16
ATOM     16  C   ASP A   2      21.037 -23.851  20.745  0.00  0.00    +0.227 C 
ATOM     17  O   ASP A   2      22.131 -23.654  20.213  0.00  0.00    -0.286 OA
ENDBRANCH  15  16
BRANCH  15  18
ATOM     18  CB  ASP A   2      19.495 -24.838  19.010  0.00  0.00    +0.142 C 
BRANCH  18  19
ATOM     19  CG  ASP A   2      18.959 -26.056  19.732  0.00  0.00    +0.367 C 
ATOM     20  OD2 ASP A   2      19.694 -26.649  20.554  0.00  0.00    -0.246 OA
ATOM     21  OD1 ASP A   2      17.794 -26.424  19.477  0.00  0.00    -0.246 OA
ENDBRANCH  18  19
ENDBRANCH  15  18
ENDBRANCH   3  15
TORSDOF 8
REMARK  Name = ../refined-set-2016/3d0e/3d0e_pocket.pdb
REMARK  258 active torsions:
REMARK  status: ('A' for Active; 'I' for Inactive)
REMARK    1  A    between atoms: _1  and  _3
REMARK    2  A    between atoms: _3  and  _4
REMARK    3  A    between atoms: _3  and  _6
REMARK    4  A    between atoms: _6  and  _7
REMARK    5  A    between atoms: _10  and  _12
REMARK    6  A    between atoms: _12  and  _13
REMARK    7  A    between atoms: _12  and  _15
REMARK    8  A    between atoms: _15  and  _16
REMARK    9  A    between atoms: _19  and  _21
REMARK   10  A    between atoms: _21  and  _22
REMARK   11  A    between atoms: _24  and  _26
REMARK   12  A    between atoms: _26  and  _27
REMARK   13  A    between atoms: _26  and  _29
REMARK   14  A    between atoms: _29  and  _30
REMARK   15  A    between atoms: _30  and  _31
REMARK   16  A    between atoms: _31  and  _32
REMARK   17  A    between atoms: _32  and  _33
REMARK   18  A    between atoms: _37  and  _39
REMARK   19  A    between atoms: _39  and  _40
REMARK   20  A    between atoms: _42  and  _44
REMARK   21  A    between atoms: _44  and  _45
REMARK   22  A    between atoms: _44  and  _47
REMARK   23  A    between atoms: _47  and  _48
REMARK   24  A    between atoms: _51  and  _53
REMARK   25  A    between atoms: _53  and  _54
REMARK   26  A    between atoms: _53  and  _56
REMARK   27  A    between atoms: _56  and  _57
REMARK   28  A    between atoms: _63  and  _65
REMARK   29  A    between atoms: _65  and  _66
REMARK   30  A    between atoms: _68  and  _70
REMARK   31  A    between atoms: _70  and  _71
REMARK   32  A    between atoms: _70  and  _73
REMARK   33  A    between atoms: _73  and  _74
REMARK   34  A    between atoms: _74  and  _75
REMARK   35  A    between atoms: _75  and  _76
REMARK   36  A    between atoms: _76  and  _77
REMARK   37  A    between atoms: _81  and  _83
REMARK   38  A    between atoms: _83  and  _84
REMARK   39  A    between atoms: _83  and  _86
REMARK   40  A    between atoms: _89  and  _91
REMARK   41  A    between atoms: _91  and  _92
REMARK   42  A    between atoms: _91  and  _94
REMARK   43  A    between atoms: _94  and  _95
REMARK   44  A    between atoms: _98  and  _100
REMARK   45  A    between atoms: _100  and  _101
REMARK   46  A    between atoms: _100  and  _103
REMARK   47  A    between atoms: _103  and  _104
REMARK   48  A    between atoms: _107  and  _109
REMARK   49  A    between atoms: _109  and  _110
REMARK   50  A    between atoms: _109  and  _112
REMARK   51  A    between atoms: _112  and  _113
REMARK   52  A    between atoms: _118  and  _119
REMARK   53  A    between atoms: _121  and  _123
REMARK   54  A    between atoms: _123  and  _124
REMARK   55  A    between atoms: _127  and  _129
REMARK   56  A    between atoms: _129  and  _130
REMARK   57  A    between atoms: _129  and  _132
REMARK   58  A    between atoms: _132  and  _133
REMARK   59  A    between atoms: _133  and  _134
REMARK   60  A    between atoms: _136  and  _138
REMARK   61  A    between atoms: _138  and  _139
REMARK   62  A    between atoms: _138  and  _141
REMARK   63  A    between atoms: _141  and  _142
REMARK   64  A    between atoms: _142  and  _143
REMARK   65  A    between atoms: _143  and  _144
REMARK   66  A    between atoms: _144  and  _145
REMARK   67  A    between atoms: _149  and  _151
REMARK   68  A    between atoms: _151  and  _152
REMARK   69  A    between atoms: _151  and  _154
REMARK   70  A    between atoms: _154  and  _155
REMARK   71  A    between atoms: _158  and  _160
REMARK   72  A    between atoms: _160  and  _161
REMARK   73  A    between atoms: _160  and  _163
REMARK   74  A    between atoms: _163  and  _164
REMARK   75  A    between atoms: _167  and  _169
REMARK   76  A    between atoms: _169  and  _170
REMARK   77  A    between atoms: _169  and  _172
REMARK   78  A    between atoms: _172  and  _173
REMARK   79  A    between atoms: _173  and  _174
REMARK   80  A    between atoms: _177  and  _179
REMARK   81  A    between atoms: _179  and  _180
REMARK   82  A    between atoms: _179  and  _182
REMARK   83  A    between atoms: _182  and  _183
REMARK   84  A    between atoms: _185  and  _187
REMARK   85  A    between atoms: _187  and  _188
REMARK   86  A    between atoms: _187  and  _190
REMARK   87  A    between atoms: _190  and  _191
REMARK   88  A    between atoms: _194  and  _196
REMARK   89  A    between atoms: _196  and  _197
REMARK   90  A    between atoms: _196  and  _199
REMARK   91  A    between atoms: _199  and  _200
REMARK   92  A    between atoms: _203  and  _205
REMARK   93  A    between atoms: _205  and  _206
REMARK   94  A    between atoms: _205  and  _208
REMARK   95  A    between atoms: _208  and  _209
REMARK   96  A    between atoms: _212  and  _214
REMARK   97  A    between atoms: _214  and  _215
REMARK   98  A    between atoms: _218  and  _220
REMARK   99  A    between atoms: _220  and  _221
REMARK  100  A    between atoms: _220  and  _223
REMARK  101  A    between atoms: _223  and  _224
REMARK  102  A    between atoms: _227  and  _229
REMARK  103  A    between atoms: _229  and  _230
REMARK  104  A    between atoms: _229  and  _232
REMARK  105  A    between atoms: _232  and  _233
REMARK  106  A    between atoms: _233  and  _234
REMARK  107  A    between atoms: _234  and  _235
REMARK  108  A    between atoms: _235  and  _236
REMARK  109  A    between atoms: _240  and  _242
REMARK  110  A    between atoms: _242  and  _243
REMARK  111  A    between atoms: _242  and  _245
REMARK  112  A    between atoms: _245  and  _246
REMARK  113  A    between atoms: _251  and  _252
REMARK  114  A    between atoms: _254  and  _256
REMARK  115  A    between atoms: _256  and  _257
REMARK  116  A    between atoms: _260  and  _262
REMARK  117  A    between atoms: _262  and  _263
REMARK  118  A    between atoms: _262  and  _265
REMARK  119  A    between atoms: _267  and  _269
REMARK  120  A    between atoms: _269  and  _270
REMARK  121  A    between atoms: _269  and  _272
REMARK  122  A    between atoms: _272  and  _273
REMARK  123  A    between atoms: _279  and  _281
REMARK  124  A    between atoms: _281  and  _282
REMARK  125  A    between atoms: _281  and  _284
REMARK  126  A    between atoms: _287  and  _289
REMARK  127  A    between atoms: _289  and  _290
REMARK  128  A    between atoms: _289  and  _292
REMARK  129  A    between atoms: _292  and  _293
REMARK  130  A    between atoms: _293  and  _294
REMARK  131  A    between atoms: _296  and  _298
REMARK  132  A    between atoms: _298  and  _299
REMARK  133  A    between atoms: _298  and  _301
REMARK  134  A    between atoms: _301  and  _302
REMARK  135  A    between atoms: _302  and  _303
REMARK  136  A    between atoms: _306  and  _308
REMARK  137  A    between atoms: _308  and  _309
REMARK  138  A    between atoms: _308  and  _311
REMARK  139  A    between atoms: _311  and  _312
REMARK  140  A    between atoms: _317  and  _318
REMARK  141  A    between atoms: _320  and  _322
REMARK  142  A    between atoms: _322  and  _323
REMARK  143  A    between atoms: _326  and  _328
REMARK  144  A    between atoms: _328  and  _329
REMARK  145  A    between atoms: _328  and  _331
REMARK  146  A    between atoms: _331  and  _332
REMARK  147  A    between atoms: _337  and  _339
REMARK  148  A    between atoms: _339  and  _340
REMARK  149  A    between atoms: _342  and  _344
REMARK  150  A    between atoms: _344  and  _345
REMARK  151  A    between atoms: _347  and  _349
REMARK  152  A    between atoms: _349  and  _350
REMARK  153  A    between atoms: _349  and  _352
REMARK  154  A    between atoms: _352  and  _353
REMARK  155  A    between atoms: _353  and  _354
REMARK  156  A    between atoms: _357  and  _359
REMARK  157  A    between atoms: _359  and  _360
REMARK  158  A    between atoms: _359  and  _362
REMARK  159  A    between atoms: _362  and  _363
REMARK  160  A    between atoms: _369  and  _371
REMARK  161  A    between atoms: _371  and  _372
REMARK  162  A    between atoms: _371  and  _374
REMARK  163  A    between atoms: _374  and  _375
REMARK  164  A    between atoms: _381  and  _383
REMARK  165  A    between atoms: _383  and  _384
REMARK  166  A    between atoms: _383  and  _386
REMARK  167  A    between atoms: _386  and  _387
REMARK  168  A    between atoms: _392  and  _393
REMARK  169  A    between atoms: _395  and  _397
REMARK  170  A    between atoms: _397  and  _398
REMARK  171  A    between atoms: _397  and  _400
REMARK  172  A    between atoms: _400  and  _401
REMARK  173  A    between atoms: _404  and  _406
REMARK  174  A    between atoms: _406  and  _407
REMARK  175  A    between atoms: _406  and  _409
REMARK  176  A    between atoms: _409  and  _410
REMARK  177  A    between atoms: _410  and  _411
REMARK  178  A    between atoms: _411  and  _412
REMARK  179  A    between atoms: _412  and  _413
REMARK  180  A    between atoms: _417  and  _419
REMARK  181  A    between atoms: _419  and  _420
REMARK  182  A    between atoms: _419  and  _422
REMARK  183  A    between atoms: _422  and  _423
REMARK  184  A    between atoms: _426  and  _428
REMARK  185  A    between atoms: _428  and  _429
REMARK  186  A    between atoms: _428  and  _431
REMARK  187  A    between atoms: _431  and  _432
REMARK  188  A    between atoms: _432  and  _433
REMARK  189  A    between atoms: _436  and  _438
REMARK  190  A    between atoms: _438  and  _439
REMARK  191  A    between atoms: _438  and  _441
REMARK  192  A    between atoms: _441  and  _442
REMARK  193  A    between atoms: _447  and  _449
REMARK  194  A    between atoms: _449  and  _450
REMARK  195  A    between atoms: _449  and  _452
REMARK  196  A    between atoms: _452  and  _453
REMARK  197  A    between atoms: _456  and  _458
REMARK  198  A    between atoms: _458  and  _459
REMARK  199  A    between atoms: _458  and  _461
REMARK  200  A    between atoms: _461  and  _462
REMARK  201  A    between atoms: _462  and  _463
REMARK  202  A    between atoms: _465  and  _467
REMARK  203  A    between atoms: _467  and  _468
REMARK  204  A    between atoms: _467  and  _470
REMARK  205  A    between atoms: _470  and  _471
REMARK  206  A    between atoms: _474  and  _476
REMARK  207  A    between atoms: _476  and  _477
REMARK  208  A    between atoms: _476  and  _479
REMARK  209  A    between atoms: _479  and  _480
REMARK  210  A    between atoms: _480  and  _481
REMARK  211  A    between atoms: _481  and  _482
REMARK  212  A    between atoms: _482  and  _483
REMARK  213  A    between atoms: _487  and  _489
REMARK  214  A    between atoms: _489  and  _490
REMARK  215  A    between atoms: _489  and  _492
REMARK  216  A    between atoms: _492  and  _493
REMARK  217  A    between atoms: _496  and  _498
REMARK  218  A    between atoms: _498  and  _499
REMARK  219  A    between atoms: _498  and  _501
REMARK  220  A    between atoms: _501  and  _502
REMARK  221  A    between atoms: _505  and  _507
REMARK  222  A    between atoms: _507  and  _508
REMARK  223  A    between atoms: _507  and  _510
REMARK  224  A    between atoms: _510  and  _511
REMARK  225  A    between atoms: _514  and  _516
REMARK  226  A    between atoms: _516  and  _517
REMARK  227  A    between atoms: _516  and  _519
REMARK  228  A    between atoms: _519  and  _520
REMARK  229  A    between atoms: _526  and  _528
REMARK  230  A    between atoms: _528  and  _529
REMARK  231  A    between atoms: _531  and  _533
REMARK  232  A    between atoms: _533  and  _534
REMARK  233  A    between atoms: _533  and  _536
REMARK  234  A    between atoms: _536  and  _537
REMARK  235  A    between atoms: _540  and  _542
REMARK  236  A    between atoms: _542  and  _543
REMARK  237  A    between atoms: _542  and  _545
REMARK  238  A    between atoms: _547  and  _549
REMARK  239  A    between atoms: _549  and  _550
REMARK  240  A    between atoms: _549  and  _552
REMARK  241  A    between atoms: _552  and  _553
REMARK  242  A    between atoms: _559  and  _561
REMARK  243  A    between atoms: _561  and  _562
REMARK  244  A    between atoms: _561  and  _564
REMARK  245  A    between atoms: _564  and  _565
REMARK  246  A    between atoms: _568  and  _570
REMARK  247  A    between atoms: _570  and  _571
REMARK  248  A    between atoms: _570  and  _573
REMARK  249  A    between atoms: _573  and  _574
REMARK  250  A    between atoms: _574  and  _575
REMARK  251  A    between atoms: _578  and  _580
REMARK  252  A    between atoms: _580  and  _581
REMARK  253  A    between atoms: _580  and  _583
REMARK  254  A    between atoms: _583  and  _584
REMARK  255  A    between atoms: _590  and  _592
REMARK  256  A    between atoms: _592  and  _593
REMARK  257  A    between atoms: _592  and  _595
REMARK  258  A    between atoms: _595  and  _596
REMARK                            x       y       z     vdW  Elec       q    Type
REMARK                         _______ _______ _______ _____ _____    ______ ____
ROOT
ATOM      1  C   GLU A   1      24.407 -26.858  20.083  0.00  0.00    +0.238 C 
ATOM      2  O   GLU A   1      25.505 -27.417  20.050  0.00  0.00    -0.274 OA
ATOM      3  N   PHE A   2      24.164 -25.690  19.491  0.00  0.00    -0.298 N 
ATOM      4  H   PHE A   2      23.210 -25.282  19.560  0.00  0.00    +0.150 HD
ENDROOT
BRANCH   1   5
ATOM      5  CA  GLU A   1      23.238 -27.498  20.829  0.00  0.00    +0.145 C 
BRANCH   5   6
ATOM      6  N   GLU A   1      22.460 -26.500  21.570  0.00  0.00    -0.238 NA
ATOM      7  H   GLU A   1      21.423 -26.569  21.547  0.00  0.00    +0.142 HD
ENDBRANCH   5   6
BRANCH   5   8
ATOM      8  CB  GLU A   1      22.328 -28.237  19.830  0.00  0.00    +0.038 C 
BRANCH   8   9
ATOM      9  CG  GLU A   1      23.002 -29.374  19.037  0.00  0.00    +0.116 C 
BRANCH   9  10
ATOM     10  CD  GLU A   1      22.335 -29.657  17.689  0.00  0.00    +0.365 C 
ATOM     11  OE2 GLU A   1      21.208 -29.166  17.441  0.00  0.00    -0.246 OA
ATOM     12  OE1 GLU A   1      22.943 -30.380  16.871  0.00  0.00    -0.246 OA
ENDBRANCH   9  10
ENDBRANCH   8   9
ENDBRANCH   5   8
ENDBRANCH   1   5
BRANCH   3  13
ATOM     13  CA  PHE A   2      25.191 -24.961  18.748  0.00  0.00    +0.141 C 
BRANCH  13  14
ATOM     14  C   PHE A   2      25.992 -24.000  19.622  0.00  0.00    +0.227 C 
ATOM     15  O   PHE A   2      27.219 -24.030  19.608  0.00  0.00    -0.286 OA
ENDBRANCH  13  14
BRANCH  13  16
ATOM     16  CB  PHE A   2      24.559 -24.181  17.597  0.00  0.00    +0.054 C 
BRANCH  16  17
ATOM     17  CG  PHE A   2      23.863 -25.049  16.590  0.00  0.00    -0.020 A 
ATOM     18  CD2 PHE A   2      22.503 -24.906  16.349  0.00  0.00    -0.004 A 
ATOM     19  CE2 PHE A   2      21.861 -25.704  15.415  0.00  0.00    -0.000 A 
ATOM     20  CZ  PHE A   2      22.580 -26.660  14.712  0.00  0.00    -0.000 A 
ATOM     21  CE1 PHE A   2      23.935 -26.815  14.949  0.00  0.00    -0.000 A 
ATOM     22  CD1 PHE A   2      24.570 -26.012  15.883  0.00  0.00    -0.004 A 
ENDBRANCH  16  17
ENDBRANCH  13  16
ENDBRANCH   3  13
TORSDOF 9
REMARK  Name = ../refined-set-2016/3d0e/3d0e_pocket.pdb
REMARK  258 active torsions:
REMARK  status: ('A' for Active; 'I' for Inactive)
REMARK    1  A    between atoms: _1  and  _3
REMARK    2  A    between atoms: _3  and  _4
REMARK    3  A    between atoms: _3  and  _6
REMARK    4  A    between atoms: _6  and  _7
REMARK    5  A    between atoms: _10  and  _12
REMARK    6  A    between atoms: _12  and  _13
REMARK    7  A    between atoms: _12  and  _15
REMARK    8  A    between atoms: _15  and  _16
REMARK    9  A    between atoms: _19  and  _21
REMARK   10  A    between atoms: _21  and  _22
REMARK   11  A    between atoms: _24  and  _26
REMARK   12  A    between atoms: _26  and  _27
REMARK   13  A    between atoms: _26  and  _29
REMARK   14  A    between atoms: _29  and  _30
REMARK   15  A    between atoms: _30  and  _31
REMARK   16  A    between atoms: _31  and  _32
REMARK   17  A    between atoms: _32  and  _33
REMARK   18  A    between atoms: _37  and  _39
REMARK   19  A    between atoms: _39  and  _40
REMARK   20  A    between atoms: _42  and  _44
REMARK   21  A    between atoms: _44  and  _45
REMARK   22  A    between atoms: _44  and  _47
REMARK   23  A    between atoms: _47  and  _48
REMARK   24  A    between atoms: _51  and  _53
REMARK   25  A    between atoms: _53  and  _54
REMARK   26  A    between atoms: _53  and  _56
REMARK   27  A    between atoms: _56  and  _57
REMARK   28  A    between atoms: _63  and  _65
REMARK   29  A    between atoms: _65  and  _66
REMARK   30  A    between atoms: _68  and  _70
REMARK   31  A    between atoms: _70  and  _71
REMARK   32  A    between atoms: _70  and  _73
REMARK   33  A    between atoms: _73  and  _74
REMARK   34  A    between atoms: _74  and  _75
REMARK   35  A    between atoms: _75  and  _76
REMARK   36  A    between atoms: _76  and  _77
REMARK   37  A    between atoms: _81  and  _83
REMARK   38  A    between atoms: _83  and  _84
REMARK   39  A    between atoms: _83  and  _86
REMARK   40  A    between atoms: _89  and  _91
REMARK   41  A    between atoms: _91  and  _92
REMARK   42  A    between atoms: _91  and  _94
REMARK   43  A    between atoms: _94  and  _95
REMARK   44  A    between atoms: _98  and  _100
REMARK   45  A    between atoms: _100  and  _101
REMARK   46  A    between atoms: _100  and  _103
REMARK   47  A    between atoms: _103  and  _104
REMARK   48  A    between atoms: _107  and  _109
REMARK   49  A    between atoms: _109  and  _110
REMARK   50  A    between atoms: _109  and  _112
REMARK   51  A    between atoms: _112  and  _113
REMARK   52  A    between atoms: _118  and  _119
REMARK   53  A    between atoms: _121  and  _123
REMARK   54  A    between atoms: _123  and  _124
REMARK   55  A    between atoms: _127  and  _129
REMARK   56  A    between atoms: _129  and  _130
REMARK   57  A    between atoms: _129  and  _132
REMARK   58  A    between atoms: _132  and  _133
REMARK   59  A    between atoms: _133  and  _134
REMARK   60  A    between atoms: _136  and  _138
REMARK   61  A    between atoms: _138  and  _139
REMARK   62  A    between atoms: _138  and  _141
REMARK   63  A    between atoms: _141  and  _142
REMARK   64  A    between atoms: _142  and  _143
REMARK   65  A    between atoms: _143  and  _144
REMARK   66  A    between atoms: _144  and  _145
REMARK   67  A    between atoms: _149  and  _151
REMARK   68  A    between atoms: _151  and  _152
REMARK   69  A    between atoms: _151  and  _154
REMARK   70  A    between atoms: _154  and  _155
REMARK   71  A    between atoms: _158  and  _160
REMARK   72  A    between atoms: _160  and  _161
REMARK   73  A    between atoms: _160  and  _163
REMARK   74  A    between atoms: _163  and  _164
REMARK   75  A    between atoms: _167  and  _169
REMARK   76  A    between atoms: _169  and  _170
REMARK   77  A    between atoms: _169  and  _172
REMARK   78  A    between atoms: _172  and  _173
REMARK   79  A    between atoms: _173  and  _174
REMARK   80  A    between atoms: _177  and  _179
REMARK   81  A    between atoms: _179  and  _180
REMARK   82  A    between atoms: _179  and  _182
REMARK   83  A    between atoms: _182  and  _183
REMARK   84  A    between atoms: _185  and  _187
REMARK   85  A    between atoms: _187  and  _188
REMARK   86  A    between atoms: _187  and  _190
REMARK   87  A    between atoms: _190  and  _191
REMARK   88  A    between atoms: _194  and  _196
REMARK   89  A    between atoms: _196  and  _197
REMARK   90  A    between atoms: _196  and  _199
REMARK   91  A    between atoms: _199  and  _200
REMARK   92  A    between atoms: _203  and  _205
REMARK   93  A    between atoms: _205  and  _206
REMARK   94  A    between atoms: _205  and  _208
REMARK   95  A    between atoms: _208  and  _209
REMARK   96  A    between atoms: _212  and  _214
REMARK   97  A    between atoms: _214  and  _215
REMARK   98  A    between atoms: _218  and  _220
REMARK   99  A    between atoms: _220  and  _221
REMARK  100  A    between atoms: _220  and  _223
REMARK  101  A    between atoms: _223  and  _224
REMARK  102  A    between atoms: _227  and  _229
REMARK  103  A    between atoms: _229  and  _230
REMARK  104  A    between atoms: _229  and  _232
REMARK  105  A    between atoms: _232  and  _233
REMARK  106  A    between atoms: _233  and  _234
REMARK  107  A    between atoms: _234  and  _235
REMARK  108  A    between atoms: _235  and  _236
REMARK  109  A    between atoms: _240  and  _242
REMARK  110  A    between atoms: _242  and  _243
REMARK  111  A    between atoms: _242  and  _245
REMARK  112  A    between atoms: _245  and  _246
REMARK  113  A    between atoms: _251  and  _252
REMARK  114  A    between atoms: _254  and  _256
REMARK  115  A    between atoms: _256  and  _257
REMARK  116  A    between atoms: _260  and  _262
REMARK  117  A    between atoms: _262  and  _263
REMARK  118  A    between atoms: _262  and  _265
REMARK  119  A    between atoms: _267  and  _269
REMARK  120  A    between atoms: _269  and  _270
REMARK  121  A    between atoms: _269  and  _272
REMARK  122  A    between atoms: _272  and  _273
REMARK  123  A    between atoms: _279  and  _281
REMARK  124  A    between atoms: _281  and  _282
REMARK  125  A    between atoms: _281  and  _284
REMARK  126  A    between atoms: _287  and  _289
REMARK  127  A    between atoms: _289  and  _290
REMARK  128  A    between atoms: _289  and  _292
REMARK  129  A    between atoms: _292  and  _293
REMARK  130  A    between atoms: _293  and  _294
REMARK  131  A    between atoms: _296  and  _298
REMARK  132  A    between atoms: _298  and  _299
REMARK  133  A    between atoms: _298  and  _301
REMARK  134  A    between atoms: _301  and  _302
REMARK  135  A    between atoms: _302  and  _303
REMARK  136  A    between atoms: _306  and  _308
REMARK  137  A    between atoms: _308  and  _309
REMARK  138  A    between atoms: _308  and  _311
REMARK  139  A    between atoms: _311  and  _312
REMARK  140  A    between atoms: _317  and  _318
REMARK  141  A    between atoms: _320  and  _322
REMARK  142  A    between atoms: _322  and  _323
REMARK  143  A    between atoms: _326  and  _328
REMARK  144  A    between atoms: _328  and  _329
REMARK  145  A    between atoms: _328  and  _331
REMARK  146  A    between atoms: _331  and  _332
REMARK  147  A    between atoms: _337  and  _339
REMARK  148  A    between atoms: _339  and  _340
REMARK  149  A    between atoms: _342  and  _344
REMARK  150  A    between atoms: _344  and  _345
REMARK  151  A    between atoms: _347  and  _349
REMARK  152  A    between atoms: _349  and  _350
REMARK  153  A    between atoms: _349  and  _352
REMARK  154  A    between atoms: _352  and  _353
REMARK  155  A    between atoms: _353  and  _354
REMARK  156  A    between atoms: _357  and  _359
REMARK  157  A    between atoms: _359  and  _360
REMARK  158  A    between atoms: _359  and  _362
REMARK  159  A    between atoms: _362  and  _363
REMARK  160  A    between atoms: _369  and  _371
REMARK  161  A    between atoms: _371  and  _372
REMARK  162  A    between atoms: _371  and  _374
REMARK  163  A    between atoms: _374  and  _375
REMARK  164  A    between atoms: _381  and  _383
REMARK  165  A    between atoms: _383  and  _384
REMARK  166  A    between atoms: _383  and  _386
REMARK  167  A    between atoms: _386  and  _387
REMARK  168  A    between atoms: _392  and  _393
REMARK  169  A    between atoms: _395  and  _397
REMARK  170  A    between atoms: _397  and  _398
REMARK  171  A    between atoms: _397  and  _400
REMARK  172  A    between atoms: _400  and  _401
REMARK  173  A    between atoms: _404  and  _406
REMARK  174  A    between atoms: _406  and  _407
REMARK  175  A    between atoms: _406  and  _409
REMARK  176  A    between atoms: _409  and  _410
REMARK  177  A    between atoms: _410  and  _411
REMARK  178  A    between atoms: _411  and  _412
REMARK  179  A    between atoms: _412  and  _413
REMARK  180  A    between atoms: _417  and  _419
REMARK  181  A    between atoms: _419  and  _420
REMARK  182  A    between atoms: _419  and  _422
REMARK  183  A    between atoms: _422  and  _423
REMARK  184  A    between atoms: _426  and  _428
REMARK  185  A    between atoms: _428  and  _429
REMARK  186  A    between atoms: _428  and  _431
REMARK  187  A    between atoms: _431  and  _432
REMARK  188  A    between atoms: _432  and  _433
REMARK  189  A    between atoms: _436  and  _438
REMARK  190  A    between atoms: _438  and  _439
REMARK  191  A    between atoms: _438  and  _441
REMARK  192  A    between atoms: _441  and  _442
REMARK  193  A    between atoms: _447  and  _449
REMARK  194  A    between atoms: _449  and  _450
REMARK  195  A    between atoms: _449  and  _452
REMARK  196  A    between atoms: _452  and  _453
REMARK  197  A    between atoms: _456  and  _458
REMARK  198  A    between atoms: _458  and  _459
REMARK  199  A    between atoms: _458  and  _461
REMARK  200  A    between atoms: _461  and  _462
REMARK  201  A    between atoms: _462  and  _463
REMARK  202  A    between atoms: _465  and  _467
REMARK  203  A    between atoms: _467  and  _468
REMARK  204  A    between atoms: _467  and  _470
REMARK  205  A    between atoms: _470  and  _471
REMARK  206  A    between atoms: _474  and  _476
REMARK  207  A    between atoms: _476  and  _477
REMARK  208  A    between atoms: _476  and  _479
REMARK  209  A    between atoms: _479  and  _480
REMARK  210  A    between atoms: _480  and  _481
REMARK  211  A    between atoms: _481  and  _482
REMARK  212  A    between atoms: _482  and  _483
REMARK  213  A    between atoms: _487  and  _489
REMARK  214  A    between atoms: _489  and  _490
REMARK  215  A    between atoms: _489  and  _492
REMARK  216  A    between atoms: _492  and  _493
REMARK  217  A    between atoms: _496  and  _498
REMARK  218  A    between atoms: _498  and  _499
REMARK  219  A    between atoms: _498  and  _501
REMARK  220  A    between atoms: _501  and  _502
REMARK  221  A    between atoms: _505  and  _507
REMARK  222  A    between atoms: _507  and  _508
REMARK  223  A    between atoms: _507  and  _510
REMARK  224  A    between atoms: _510  and  _511
REMARK  225  A    between atoms: _514  and  _516
REMARK  226  A    between atoms: _516  and  _517
REMARK  227  A    between atoms: _516  and  _519
REMARK  228  A    between atoms: _519  and  _520
REMARK  229  A    between atoms: _526  and  _528
REMARK  230  A    between atoms: _528  and  _529
REMARK  231  A    between atoms: _531  and  _533
REMARK  232  A    between atoms: _533  and  _534
REMARK  233  A    between atoms: _533  and  _536
REMARK  234  A    between atoms: _536  and  _537
REMARK  235  A    between atoms: _540  and  _542
REMARK  236  A    between atoms: _542  and  _543
REMARK  237  A    between atoms: _542  and  _545
REMARK  238  A    between atoms: _547  and  _549
REMARK  239  A    between atoms: _549  and  _550
REMARK  240  A    between atoms: _549  and  _552
REMARK  241  A    between atoms: _552  and  _553
REMARK  242  A    between atoms: _559  and  _561
REMARK  243  A    between atoms: _561  and  _562
REMARK  244  A    between atoms: _561  and  _564
REMARK  245  A    between atoms: _564  and  _565
REMARK  246  A    between atoms: _568  and  _570
REMARK  247  A    between atoms: _570  and  _571
REMARK  248  A    between atoms: _570  and  _573
REMARK  249  A    between atoms: _573  and  _574
REMARK  250  A    between atoms: _574  and  _575
REMARK  251  A    between atoms: _578  and  _580
REMARK  252  A    between atoms: _580  and  _581
REMARK  253  A    between atoms: _580  and  _583
REMARK  254  A    between atoms: _583  and  _584
REMARK  255  A    between atoms: _590  and  _592
REMARK  256  A    between atoms: _592  and  _593
REMARK  257  A    between atoms: _592  and  _595
REMARK  258  A    between atoms: _595  and  _596
REMARK                            x       y       z     vdW  Elec       q    Type
REMARK                         _______ _______ _______ _____ _____    ______ ____
ROOT
ATOM      1  CB  PHE A   1      35.121 -14.545  -2.492  0.00  0.00    +0.051 C 
ENDROOT
BRANCH   1   2
ATOM      2  CG  PHE A   1      33.900 -15.375  -2.247  0.00  0.00    -0.020 A 
ATOM      3  CD2 PHE A   1      33.376 -15.511  -0.968  0.00  0.00    -0.004 A 
ATOM      4  CE2 PHE A   1      32.229 -16.264  -0.750  0.00  0.00    -0.000 A 
ATOM      5  CZ  PHE A   1      31.594 -16.877  -1.821  0.00  0.00    -0.000 A 
ATOM      6  CE1 PHE A   1      32.106 -16.738  -3.099  0.00  0.00    -0.000 A 
ATOM      7  CD1 PHE A   1      33.247 -15.987  -3.306  0.00  0.00    -0.004 A 
ENDBRANCH   1   2
BRANCH   1   8
ATOM      8  CA  PHE A   1      34.794 -13.147  -3.030  0.00  0.00    +0.137 C 
BRANCH   8   9
ATOM      9  N   PHE A   1      34.437 -13.198  -4.450  0.00  0.00    -0.239 NA
ATOM     10  H   PHE A   1      35.164 -13.449  -5.150  0.00  0.00    +0.142 HD
ENDBRANCH   8   9
BRANCH   8  11
ATOM     11  C   PHE A   1      35.911 -12.144  -2.787  0.00  0.00    +0.224 C 
ATOM     12  O   PHE A   1      36.966 -12.462  -2.234  0.00  0.00    -0.287 OA
ENDBRANCH   8  11
ENDBRANCH   1   8
TORSDOF 4
REMARK  Name = ../refined-set-2016/3d0e/3d0e_pocket.pdb
REMARK  258 active torsions:
REMARK  status: ('A' for Active; 'I' for Inactive)
REMARK    1  A    between atoms: _1  and  _3
REMARK    2  A    between atoms: _3  and  _4
REMARK    3  A    between atoms: _3  and  _6
REMARK    4  A    between atoms: _6  and  _7
REMARK    5  A    between atoms: _10  and  _12
REMARK    6  A    between atoms: _12  and  _13
REMARK    7  A    between atoms: _12  and  _15
REMARK    8  A    between atoms: _15  and  _16
REMARK    9  A    between atoms: _19  and  _21
REMARK   10  A    between atoms: _21  and  _22
REMARK   11  A    between atoms: _24  and  _26
REMARK   12  A    between atoms: _26  and  _27
REMARK   13  A    between atoms: _26  and  _29
REMARK   14  A    between atoms: _29  and  _30
REMARK   15  A    between atoms: _30  and  _31
REMARK   16  A    between atoms: _31  and  _32
REMARK   17  A    between atoms: _32  and  _33
REMARK   18  A    between atoms: _37  and  _39
REMARK   19  A    between atoms: _39  and  _40
REMARK   20  A    between atoms: _42  and  _44
REMARK   21  A    between atoms: _44  and  _45
REMARK   22  A    between atoms: _44  and  _47
REMARK   23  A    between atoms: _47  and  _48
REMARK   24  A    between atoms: _51  and  _53
REMARK   25  A    between atoms: _53  and  _54
REMARK   26  A    between atoms: _53  and  _56
REMARK   27  A    between atoms: _56  and  _57
REMARK   28  A    between atoms: _63  and  _65
REMARK   29  A    between atoms: _65  and  _66
REMARK   30  A    between atoms: _68  and  _70
REMARK   31  A    between atoms: _70  and  _71
REMARK   32  A    between atoms: _70  and  _73
REMARK   33  A    between atoms: _73  and  _74
REMARK   34  A    between atoms: _74  and  _75
REMARK   35  A    between atoms: _75  and  _76
REMARK   36  A    between atoms: _76  and  _77
REMARK   37  A    between atoms: _81  and  _83
REMARK   38  A    between atoms: _83  and  _84
REMARK   39  A    between atoms: _83  and  _86
REMARK   40  A    between atoms: _89  and  _91
REMARK   41  A    between atoms: _91  and  _92
REMARK   42  A    between atoms: _91  and  _94
REMARK   43  A    between atoms: _94  and  _95
REMARK   44  A    between atoms: _98  and  _100
REMARK   45  A    between atoms: _100  and  _101
REMARK   46  A    between atoms: _100  and  _103
REMARK   47  A    between atoms: _103  and  _104
REMARK   48  A    between atoms: _107  and  _109
REMARK   49  A    between atoms: _109  and  _110
REMARK   50  A    between atoms: _109  and  _112
REMARK   51  A    between atoms: _112  and  _113
REMARK   52  A    between atoms: _118  and  _119
REMARK   53  A    between atoms: _121  and  _123
REMARK   54  A    between atoms: _123  and  _124
REMARK   55  A    between atoms: _127  and  _129
REMARK   56  A    between atoms: _129  and  _130
REMARK   57  A    between atoms: _129  and  _132
REMARK   58  A    between atoms: _132  and  _133
REMARK   59  A    between atoms: _133  and  _134
REMARK   60  A    between atoms: _136  and  _138
REMARK   61  A    between atoms: _138  and  _139
REMARK   62  A    between atoms: _138  and  _141
REMARK   63  A    between atoms: _141  and  _142
REMARK   64  A    between atoms: _142  and  _143
REMARK   65  A    between atoms: _143  and  _144
REMARK   66  A    between atoms: _144  and  _145
REMARK   67  A    between atoms: _149  and  _151
REMARK   68  A    between atoms: _151  and  _152
REMARK   69  A    between atoms: _151  and  _154
REMARK   70  A    between atoms: _154  and  _155
REMARK   71  A    between atoms: _158  and  _160
REMARK   72  A    between atoms: _160  and  _161
REMARK   73  A    between atoms: _160  and  _163
REMARK   74  A    between atoms: _163  and  _164
REMARK   75  A    between atoms: _167  and  _169
REMARK   76  A    between atoms: _169  and  _170
REMARK   77  A    between atoms: _169  and  _172
REMARK   78  A    between atoms: _172  and  _173
REMARK   79  A    between atoms: _173  and  _174
REMARK   80  A    between atoms: _177  and  _179
REMARK   81  A    between atoms: _179  and  _180
REMARK   82  A    between atoms: _179  and  _182
REMARK   83  A    between atoms: _182  and  _183
REMARK   84  A    between atoms: _185  and  _187
REMARK   85  A    between atoms: _187  and  _188
REMARK   86  A    between atoms: _187  and  _190
REMARK   87  A    between atoms: _190  and  _191
REMARK   88  A    between atoms: _194  and  _196
REMARK   89  A    between atoms: _196  and  _197
REMARK   90  A    between atoms: _196  and  _199
REMARK   91  A    between atoms: _199  and  _200
REMARK   92  A    between atoms: _203  and  _205
REMARK   93  A    between atoms: _205  and  _206
REMARK   94  A    between atoms: _205  and  _208
REMARK   95  A    between atoms: _208  and  _209
REMARK   96  A    between atoms: _212  and  _214
REMARK   97  A    between atoms: _214  and  _215
REMARK   98  A    between atoms: _218  and  _220
REMARK   99  A    between atoms: _220  and  _221
REMARK  100  A    between atoms: _220  and  _223
REMARK  101  A    between atoms: _223  and  _224
REMARK  102  A    between atoms: _227  and  _229
REMARK  103  A    between atoms: _229  and  _230
REMARK  104  A    between atoms: _229  and  _232
REMARK  105  A    between atoms: _232  and  _233
REMARK  106  A    between atoms: _233  and  _234
REMARK  107  A    between atoms: _234  and  _235
REMARK  108  A    between atoms: _235  and  _236
REMARK  109  A    between atoms: _240  and  _242
REMARK  110  A    between atoms: _242  and  _243
REMARK  111  A    between atoms: _242  and  _245
REMARK  112  A    between atoms: _245  and  _246
REMARK  113  A    between atoms: _251  and  _252
REMARK  114  A    between atoms: _254  and  _256
REMARK  115  A    between atoms: _256  and  _257
REMARK  116  A    between atoms: _260  and  _262
REMARK  117  A    between atoms: _262  and  _263
REMARK  118  A    between atoms: _262  and  _265
REMARK  119  A    between atoms: _267  and  _269
REMARK  120  A    between atoms: _269  and  _270
REMARK  121  A    between atoms: _269  and  _272
REMARK  122  A    between atoms: _272  and  _273
REMARK  123  A    between atoms: _279  and  _281
REMARK  124  A    between atoms: _281  and  _282
REMARK  125  A    between atoms: _281  and  _284
REMARK  126  A    between atoms: _287  and  _289
REMARK  127  A    between atoms: _289  and  _290
REMARK  128  A    between atoms: _289  and  _292
REMARK  129  A    between atoms: _292  and  _293
REMARK  130  A    between atoms: _293  and  _294
REMARK  131  A    between atoms: _296  and  _298
REMARK  132  A    between atoms: _298  and  _299
REMARK  133  A    between atoms: _298  and  _301
REMARK  134  A    between atoms: _301  and  _302
REMARK  135  A    between atoms: _302  and  _303
REMARK  136  A    between atoms: _306  and  _308
REMARK  137  A    between atoms: _308  and  _309
REMARK  138  A    between atoms: _308  and  _311
REMARK  139  A    between atoms: _311  and  _312
REMARK  140  A    between atoms: _317  and  _318
REMARK  141  A    between atoms: _320  and  _322
REMARK  142  A    between atoms: _322  and  _323
REMARK  143  A    between atoms: _326  and  _328
REMARK  144  A    between atoms: _328  and  _329
REMARK  145  A    between atoms: _328  and  _331
REMARK  146  A    between atoms: _331  and  _332
REMARK  147  A    between atoms: _337  and  _339
REMARK  148  A    between atoms: _339  and  _340
REMARK  149  A    between atoms: _342  and  _344
REMARK  150  A    between atoms: _344  and  _345
REMARK  151  A    between atoms: _347  and  _349
REMARK  152  A    between atoms: _349  and  _350
REMARK  153  A    between atoms: _349  and  _352
REMARK  154  A    between atoms: _352  and  _353
REMARK  155  A    between atoms: _353  and  _354
REMARK  156  A    between atoms: _357  and  _359
REMARK  157  A    between atoms: _359  and  _360
REMARK  158  A    between atoms: _359  and  _362
REMARK  159  A    between atoms: _362  and  _363
REMARK  160  A    between atoms: _369  and  _371
REMARK  161  A    between atoms: _371  and  _372
REMARK  162  A    between atoms: _371  and  _374
REMARK  163  A    between atoms: _374  and  _375
REMARK  164  A    between atoms: _381  and  _383
REMARK  165  A    between atoms: _383  and  _384
REMARK  166  A    between atoms: _383  and  _386
REMARK  167  A    between atoms: _386  and  _387
REMARK  168  A    between atoms: _392  and  _393
REMARK  169  A    between atoms: _395  and  _397
REMARK  170  A    between atoms: _397  and  _398
REMARK  171  A    between atoms: _397  and  _400
REMARK  172  A    between atoms: _400  and  _401
REMARK  173  A    between atoms: _404  and  _406
REMARK  174  A    between atoms: _406  and  _407
REMARK  175  A    between atoms: _406  and  _409
REMARK  176  A    between atoms: _409  and  _410
REMARK  177  A    between atoms: _410  and  _411
REMARK  178  A    between atoms: _411  and  _412
REMARK  179  A    between atoms: _412  and  _413
REMARK  180  A    between atoms: _417  and  _419
REMARK  181  A    between atoms: _419  and  _420
REMARK  182  A    between atoms: _419  and  _422
REMARK  183  A    between atoms: _422  and  _423
REMARK  184  A    between atoms: _426  and  _428
REMARK  185  A    between atoms: _428  and  _429
REMARK  186  A    between atoms: _428  and  _431
REMARK  187  A    between atoms: _431  and  _432
REMARK  188  A    between atoms: _432  and  _433
REMARK  189  A    between atoms: _436  and  _438
REMARK  190  A    between atoms: _438  and  _439
REMARK  191  A    between atoms: _438  and  _441
REMARK  192  A    between atoms: _441  and  _442
REMARK  193  A    between atoms: _447  and  _449
REMARK  194  A    between atoms: _449  and  _450
REMARK  195  A    between atoms: _449  and  _452
REMARK  196  A    between atoms: _452  and  _453
REMARK  197  A    between atoms: _456  and  _458
REMARK  198  A    between atoms: _458  and  _459
REMARK  199  A    between atoms: _458  and  _461
REMARK  200  A    between atoms: _461  and  _462
REMARK  201  A    between atoms: _462  and  _463
REMARK  202  A    between atoms: _465  and  _467
REMARK  203  A    between atoms: _467  and  _468
REMARK  204  A    between atoms: _467  and  _470
REMARK  205  A    between atoms: _470  and  _471
REMARK  206  A    between atoms: _474  and  _476
REMARK  207  A    between atoms: _476  and  _477
REMARK  208  A    between atoms: _476  and  _479
REMARK  209  A    between atoms: _479  and  _480
REMARK  210  A    between atoms: _480  and  _481
REMARK  211  A    between atoms: _481  and  _482
REMARK  212  A    between atoms: _482  and  _483
REMARK  213  A    between atoms: _487  and  _489
REMARK  214  A    between atoms: _489  and  _490
REMARK  215  A    between atoms: _489  and  _492
REMARK  216  A    between atoms: _492  and  _493
REMARK  217  A    between atoms: _496  and  _498
REMARK  218  A    between atoms: _498  and  _499
REMARK  219  A    between atoms: _498  and  _501
REMARK  220  A    between atoms: _501  and  _502
REMARK  221  A    between atoms: _505  and  _507
REMARK  222  A    between atoms: _507  and  _508
REMARK  223  A    between atoms: _507  and  _510
REMARK  224  A    between atoms: _510  and  _511
REMARK  225  A    between atoms: _514  and  _516
REMARK  226  A    between atoms: _516  and  _517
REMARK  227  A    between atoms: _516  and  _519
REMARK  228  A    between atoms: _519  and  _520
REMARK  229  A    between atoms: _526  and  _528
REMARK  230  A    between atoms: _528  and  _529
REMARK  231  A    between atoms: _531  and  _533
REMARK  232  A    between atoms: _533  and  _534
REMARK  233  A    between atoms: _533  and  _536
REMARK  234  A    between atoms: _536  and  _537
REMARK  235  A    between atoms: _540  and  _542
REMARK  236  A    between atoms: _542  and  _543
REMARK  237  A    between atoms: _542  and  _545
REMARK  238  A    between atoms: _547  and  _549
REMARK  239  A    between atoms: _549  and  _550
REMARK  240  A    between atoms: _549  and  _552
REMARK  241  A    between atoms: _552  and  _553
REMARK  242  A    between atoms: _559  and  _561
REMARK  243  A    between atoms: _561  and  _562
REMARK  244  A    between atoms: _561  and  _564
REMARK  245  A    between atoms: _564  and  _565
REMARK  246  A    between atoms: _568  and  _570
REMARK  247  A    between atoms: _570  and  _571
REMARK  248  A    between atoms: _570  and  _573
REMARK  249  A    between atoms: _573  and  _574
REMARK  250  A    between atoms: _574  and  _575
REMARK  251  A    between atoms: _578  and  _580
REMARK  252  A    between atoms: _580  and  _581
REMARK  253  A    between atoms: _580  and  _583
REMARK  254  A    between atoms: _583  and  _584
REMARK  255  A    between atoms: _590  and  _592
REMARK  256  A    between atoms: _592  and  _593
REMARK  257  A    between atoms: _592  and  _595
REMARK  258  A    between atoms: _595  and  _596
REMARK                            x       y       z     vdW  Elec       q    Type
REMARK                         _______ _______ _______ _____ _____    ______ ____
ROOT
ATOM      1  O   HOH     1      19.440 -19.940   7.756  0.00  0.00    +0.000 OA
ENDROOT
TORSDOF 0
REMARK  Name = ../refined-set-2016/3d0e/3d0e_pocket.pdb
REMARK  258 active torsions:
REMARK  status: ('A' for Active; 'I' for Inactive)
REMARK    1  A    between atoms: _1  and  _3
REMARK    2  A    between atoms: _3  and  _4
REMARK    3  A    between atoms: _3  and  _6
REMARK    4  A    between atoms: _6  and  _7
REMARK    5  A    between atoms: _10  and  _12
REMARK    6  A    between atoms: _12  and  _13
REMARK    7  A    between atoms: _12  and  _15
REMARK    8  A    between atoms: _15  and  _16
REMARK    9  A    between atoms: _19  and  _21
REMARK   10  A    between atoms: _21  and  _22
REMARK   11  A    between atoms: _24  and  _26
REMARK   12  A    between atoms: _26  and  _27
REMARK   13  A    between atoms: _26  and  _29
REMARK   14  A    between atoms: _29  and  _30
REMARK   15  A    between atoms: _30  and  _31
REMARK   16  A    between atoms: _31  and  _32
REMARK   17  A    between atoms: _32  and  _33
REMARK   18  A    between atoms: _37  and  _39
REMARK   19  A    between atoms: _39  and  _40
REMARK   20  A    between atoms: _42  and  _44
REMARK   21  A    between atoms: _44  and  _45
REMARK   22  A    between atoms: _44  and  _47
REMARK   23  A    between atoms: _47  and  _48
REMARK   24  A    between atoms: _51  and  _53
REMARK   25  A    between atoms: _53  and  _54
REMARK   26  A    between atoms: _53  and  _56
REMARK   27  A    between atoms: _56  and  _57
REMARK   28  A    between atoms: _63  and  _65
REMARK   29  A    between atoms: _65  and  _66
REMARK   30  A    between atoms: _68  and  _70
REMARK   31  A    between atoms: _70  and  _71
REMARK   32  A    between atoms: _70  and  _73
REMARK   33  A    between atoms: _73  and  _74
REMARK   34  A    between atoms: _74  and  _75
REMARK   35  A    between atoms: _75  and  _76
REMARK   36  A    between atoms: _76  and  _77
REMARK   37  A    between atoms: _81  and  _83
REMARK   38  A    between atoms: _83  and  _84
REMARK   39  A    between atoms: _83  and  _86
REMARK   40  A    between atoms: _89  and  _91
REMARK   41  A    between atoms: _91  and  _92
REMARK   42  A    between atoms: _91  and  _94
REMARK   43  A    between atoms: _94  and  _95
REMARK   44  A    between atoms: _98  and  _100
REMARK   45  A    between atoms: _100  and  _101
REMARK   46  A    between atoms: _100  and  _103
REMARK   47  A    between atoms: _103  and  _104
REMARK   48  A    between atoms: _107  and  _109
REMARK   49  A    between atoms: _109  and  _110
REMARK   50  A    between atoms: _109  and  _112
REMARK   51  A    between atoms: _112  and  _113
REMARK   52  A    between atoms: _118  and  _119
REMARK   53  A    between atoms: _121  and  _123
REMARK   54  A    between atoms: _123  and  _124
REMARK   55  A    between atoms: _127  and  _129
REMARK   56  A    between atoms: _129  and  _130
REMARK   57  A    between atoms: _129  and  _132
REMARK   58  A    between atoms: _132  and  _133
REMARK   59  A    between atoms: _133  and  _134
REMARK   60  A    between atoms: _136  and  _138
REMARK   61  A    between atoms: _138  and  _139
REMARK   62  A    between atoms: _138  and  _141
REMARK   63  A    between atoms: _141  and  _142
REMARK   64  A    between atoms: _142  and  _143
REMARK   65  A    between atoms: _143  and  _144
REMARK   66  A    between atoms: _144  and  _145
REMARK   67  A    between atoms: _149  and  _151
REMARK   68  A    between atoms: _151  and  _152
REMARK   69  A    between atoms: _151  and  _154
REMARK   70  A    between atoms: _154  and  _155
REMARK   71  A    between atoms: _158  and  _160
REMARK   72  A    between atoms: _160  and  _161
REMARK   73  A    between atoms: _160  and  _163
REMARK   74  A    between atoms: _163  and  _164
REMARK   75  A    between atoms: _167  and  _169
REMARK   76  A    between atoms: _169  and  _170
REMARK   77  A    between atoms: _169  and  _172
REMARK   78  A    between atoms: _172  and  _173
REMARK   79  A    between atoms: _173  and  _174
REMARK   80  A    between atoms: _177  and  _179
REMARK   81  A    between atoms: _179  and  _180
REMARK   82  A    between atoms: _179  and  _182
REMARK   83  A    between atoms: _182  and  _183
REMARK   84  A    between atoms: _185  and  _187
REMARK   85  A    between atoms: _187  and  _188
REMARK   86  A    between atoms: _187  and  _190
REMARK   87  A    between atoms: _190  and  _191
REMARK   88  A    between atoms: _194  and  _196
REMARK   89  A    between atoms: _196  and  _197
REMARK   90  A    between atoms: _196  and  _199
REMARK   91  A    between atoms: _199  and  _200
REMARK   92  A    between atoms: _203  and  _205
REMARK   93  A    between atoms: _205  and  _206
REMARK   94  A    between atoms: _205  and  _208
REMARK   95  A    between atoms: _208  and  _209
REMARK   96  A    between atoms: _212  and  _214
REMARK   97  A    between atoms: _214  and  _215
REMARK   98  A    between atoms: _218  and  _220
REMARK   99  A    between atoms: _220  and  _221
REMARK  100  A    between atoms: _220  and  _223
REMARK  101  A    between atoms: _223  and  _224
REMARK  102  A    between atoms: _227  and  _229
REMARK  103  A    between atoms: _229  and  _230
REMARK  104  A    between atoms: _229  and  _232
REMARK  105  A    between atoms: _232  and  _233
REMARK  106  A    between atoms: _233  and  _234
REMARK  107  A    between atoms: _234  and  _235
REMARK  108  A    between atoms: _235  and  _236
REMARK  109  A    between atoms: _240  and  _242
REMARK  110  A    between atoms: _242  and  _243
REMARK  111  A    between atoms: _242  and  _245
REMARK  112  A    between atoms: _245  and  _246
REMARK  113  A    between atoms: _251  and  _252
REMARK  114  A    between atoms: _254  and  _256
REMARK  115  A    between atoms: _256  and  _257
REMARK  116  A    between atoms: _260  and  _262
REMARK  117  A    between atoms: _262  and  _263
REMARK  118  A    between atoms: _262  and  _265
REMARK  119  A    between atoms: _267  and  _269
REMARK  120  A    between atoms: _269  and  _270
REMARK  121  A    between atoms: _269  and  _272
REMARK  122  A    between atoms: _272  and  _273
REMARK  123  A    between atoms: _279  and  _281
REMARK  124  A    between atoms: _281  and  _282
REMARK  125  A    between atoms: _281  and  _284
REMARK  126  A    between atoms: _287  and  _289
REMARK  127  A    between atoms: _289  and  _290
REMARK  128  A    between atoms: _289  and  _292
REMARK  129  A    between atoms: _292  and  _293
REMARK  130  A    between atoms: _293  and  _294
REMARK  131  A    between atoms: _296  and  _298
REMARK  132  A    between atoms: _298  and  _299
REMARK  133  A    between atoms: _298  and  _301
REMARK  134  A    between atoms: _301  and  _302
REMARK  135  A    between atoms: _302  and  _303
REMARK  136  A    between atoms: _306  and  _308
REMARK  137  A    between atoms: _308  and  _309
REMARK  138  A    between atoms: _308  and  _311
REMARK  139  A    between atoms: _311  and  _312
REMARK  140  A    between atoms: _317  and  _318
REMARK  141  A    between atoms: _320  and  _322
REMARK  142  A    between atoms: _322  and  _323
REMARK  143  A    between atoms: _326  and  _328
REMARK  144  A    between atoms: _328  and  _329
REMARK  145  A    between atoms: _328  and  _331
REMARK  146  A    between atoms: _331  and  _332
REMARK  147  A    between atoms: _337  and  _339
REMARK  148  A    between atoms: _339  and  _340
REMARK  149  A    between atoms: _342  and  _344
REMARK  150  A    between atoms: _344  and  _345
REMARK  151  A    between atoms: _347  and  _349
REMARK  152  A    between atoms: _349  and  _350
REMARK  153  A    between atoms: _349  and  _352
REMARK  154  A    between atoms: _352  and  _353
REMARK  155  A    between atoms: _353  and  _354
REMARK  156  A    between atoms: _357  and  _359
REMARK  157  A    between atoms: _359  and  _360
REMARK  158  A    between atoms: _359  and  _362
REMARK  159  A    between atoms: _362  and  _363
REMARK  160  A    between atoms: _369  and  _371
REMARK  161  A    between atoms: _371  and  _372
REMARK  162  A    between atoms: _371  and  _374
REMARK  163  A    between atoms: _374  and  _375
REMARK  164  A    between atoms: _381  and  _383
REMARK  165  A    between atoms: _383  and  _384
REMARK  166  A    between atoms: _383  and  _386
REMARK  167  A    between atoms: _386  and  _387
REMARK  168  A    between atoms: _392  and  _393
REMARK  169  A    between atoms: _395  and  _397
REMARK  170  A    between atoms: _397  and  _398
REMARK  171  A    between atoms: _397  and  _400
REMARK  172  A    between atoms: _400  and  _401
REMARK  173  A    between atoms: _404  and  _406
REMARK  174  A    between atoms: _406  and  _407
REMARK  175  A    between atoms: _406  and  _409
REMARK  176  A    between atoms: _409  and  _410
REMARK  177  A    between atoms: _410  and  _411
REMARK  178  A    between atoms: _411  and  _412
REMARK  179  A    between atoms: _412  and  _413
REMARK  180  A    between atoms: _417  and  _419
REMARK  181  A    between atoms: _419  and  _420
REMARK  182  A    between atoms: _419  and  _422
REMARK  183  A    between atoms: _422  and  _423
REMARK  184  A    between atoms: _426  and  _428
REMARK  185  A    between atoms: _428  and  _429
REMARK  186  A    between atoms: _428  and  _431
REMARK  187  A    between atoms: _431  and  _432
REMARK  188  A    between atoms: _432  and  _433
REMARK  189  A    between atoms: _436  and  _438
REMARK  190  A    between atoms: _438  and  _439
REMARK  191  A    between atoms: _438  and  _441
REMARK  192  A    between atoms: _441  and  _442
REMARK  193  A    between atoms: _447  and  _449
REMARK  194  A    between atoms: _449  and  _450
REMARK  195  A    between atoms: _449  and  _452
REMARK  196  A    between atoms: _452  and  _453
REMARK  197  A    between atoms: _456  and  _458
REMARK  198  A    between atoms: _458  and  _459
REMARK  199  A    between atoms: _458  and  _461
REMARK  200  A    between atoms: _461  and  _462
REMARK  201  A    between atoms: _462  and  _463
REMARK  202  A    between atoms: _465  and  _467
REMARK  203  A    between atoms: _467  and  _468
REMARK  204  A    between atoms: _467  and  _470
REMARK  205  A    between atoms: _470  and  _471
REMARK  206  A    between atoms: _474  and  _476
REMARK  207  A    between atoms: _476  and  _477
REMARK  208  A    between atoms: _476  and  _479
REMARK  209  A    between atoms: _479  and  _480
REMARK  210  A    between atoms: _480  and  _481
REMARK  211  A    between atoms: _481  and  _482
REMARK  212  A    between atoms: _482  and  _483
REMARK  213  A    between atoms: _487  and  _489
REMARK  214  A    between atoms: _489  and  _490
REMARK  215  A    between atoms: _489  and  _492
REMARK  216  A    between atoms: _492  and  _493
REMARK  217  A    between atoms: _496  and  _498
REMARK  218  A    between atoms: _498  and  _499
REMARK  219  A    between atoms: _498  and  _501
REMARK  220  A    between atoms: _501  and  _502
REMARK  221  A    between atoms: _505  and  _507
REMARK  222  A    between atoms: _507  and  _508
REMARK  223  A    between atoms: _507  and  _510
REMARK  224  A    between atoms: _510  and  _511
REMARK  225  A    between atoms: _514  and  _516
REMARK  226  A    between atoms: _516  and  _517
REMARK  227  A    between atoms: _516  and  _519
REMARK  228  A    between atoms: _519  and  _520
REMARK  229  A    between atoms: _526  and  _528
REMARK  230  A    between atoms: _528  and  _529
REMARK  231  A    between atoms: _531  and  _533
REMARK  232  A    between atoms: _533  and  _534
REMARK  233  A    between atoms: _533  and  _536
REMARK  234  A    between atoms: _536  and  _537
REMARK  235  A    between atoms: _540  and  _542
REMARK  236  A    between atoms: _542  and  _543
REMARK  237  A    between atoms: _542  and  _545
REMARK  238  A    between atoms: _547  and  _549
REMARK  239  A    between atoms: _549  and  _550
REMARK  240  A    between atoms: _549  and  _552
REMARK  241  A    between atoms: _552  and  _553
REMARK  242  A    between atoms: _559  and  _561
REMARK  243  A    between atoms: _561  and  _562
REMARK  244  A    between atoms: _561  and  _564
REMARK  245  A    between atoms: _564  and  _565
REMARK  246  A    between atoms: _568  and  _570
REMARK  247  A    between atoms: _570  and  _571
REMARK  248  A    between atoms: _570  and  _573
REMARK  249  A    between atoms: _573  and  _574
REMARK  250  A    between atoms: _574  and  _575
REMARK  251  A    between atoms: _578  and  _580
REMARK  252  A    between atoms: _580  and  _581
REMARK  253  A    between atoms: _580  and  _583
REMARK  254  A    between atoms: _583  and  _584
REMARK  255  A    between atoms: _590  and  _592
REMARK  256  A    between atoms: _592  and  _593
REMARK  257  A    between atoms: _592  and  _595
REMARK  258  A    between atoms: _595  and  _596
REMARK                            x       y       z     vdW  Elec       q    Type
REMARK                         _______ _______ _______ _____ _____    ______ ____
ROOT
ATOM      1  O   HOH     1      18.883 -20.027  -2.110  0.00  0.00    +0.000 OA
ENDROOT
TORSDOF 0
REMARK  Name = ../refined-set-2016/3d0e/3d0e_pocket.pdb
REMARK  258 active torsions:
REMARK  status: ('A' for Active; 'I' for Inactive)
REMARK    1  A    between atoms: _1  and  _3
REMARK    2  A    between atoms: _3  and  _4
REMARK    3  A    between atoms: _3  and  _6
REMARK    4  A    between atoms: _6  and  _7
REMARK    5  A    between atoms: _10  and  _12
REMARK    6  A    between atoms: _12  and  _13
REMARK    7  A    between atoms: _12  and  _15
REMARK    8  A    between atoms: _15  and  _16
REMARK    9  A    between atoms: _19  and  _21
REMARK   10  A    between atoms: _21  and  _22
REMARK   11  A    between atoms: _24  and  _26
REMARK   12  A    between atoms: _26  and  _27
REMARK   13  A    between atoms: _26  and  _29
REMARK   14  A    between atoms: _29  and  _30
REMARK   15  A    between atoms: _30  and  _31
REMARK   16  A    between atoms: _31  and  _32
REMARK   17  A    between atoms: _32  and  _33
REMARK   18  A    between atoms: _37  and  _39
REMARK   19  A    between atoms: _39  and  _40
REMARK   20  A    between atoms: _42  and  _44
REMARK   21  A    between atoms: _44  and  _45
REMARK   22  A    between atoms: _44  and  _47
REMARK   23  A    between atoms: _47  and  _48
REMARK   24  A    between atoms: _51  and  _53
REMARK   25  A    between atoms: _53  and  _54
REMARK   26  A    between atoms: _53  and  _56
REMARK   27  A    between atoms: _56  and  _57
REMARK   28  A    between atoms: _63  and  _65
REMARK   29  A    between atoms: _65  and  _66
REMARK   30  A    between atoms: _68  and  _70
REMARK   31  A    between atoms: _70  and  _71
REMARK   32  A    between atoms: _70  and  _73
REMARK   33  A    between atoms: _73  and  _74
REMARK   34  A    between atoms: _74  and  _75
REMARK   35  A    between atoms: _75  and  _76
REMARK   36  A    between atoms: _76  and  _77
REMARK   37  A    between atoms: _81  and  _83
REMARK   38  A    between atoms: _83  and  _84
REMARK   39  A    between atoms: _83  and  _86
REMARK   40  A    between atoms: _89  and  _91
REMARK   41  A    between atoms: _91  and  _92
REMARK   42  A    between atoms: _91  and  _94
REMARK   43  A    between atoms: _94  and  _95
REMARK   44  A    between atoms: _98  and  _100
REMARK   45  A    between atoms: _100  and  _101
REMARK   46  A    between atoms: _100  and  _103
REMARK   47  A    between atoms: _103  and  _104
REMARK   48  A    between atoms: _107  and  _109
REMARK   49  A    between atoms: _109  and  _110
REMARK   50  A    between atoms: _109  and  _112
REMARK   51  A    between atoms: _112  and  _113
REMARK   52  A    between atoms: _118  and  _119
REMARK   53  A    between atoms: _121  and  _123
REMARK   54  A    between atoms: _123  and  _124
REMARK   55  A    between atoms: _127  and  _129
REMARK   56  A    between atoms: _129  and  _130
REMARK   57  A    between atoms: _129  and  _132
REMARK   58  A    between atoms: _132  and  _133
REMARK   59  A    between atoms: _133  and  _134
REMARK   60  A    between atoms: _136  and  _138
REMARK   61  A    between atoms: _138  and  _139
REMARK   62  A    between atoms: _138  and  _141
REMARK   63  A    between atoms: _141  and  _142
REMARK   64  A    between atoms: _142  and  _143
REMARK   65  A    between atoms: _143  and  _144
REMARK   66  A    between atoms: _144  and  _145
REMARK   67  A    between atoms: _149  and  _151
REMARK   68  A    between atoms: _151  and  _152
REMARK   69  A    between atoms: _151  and  _154
REMARK   70  A    between atoms: _154  and  _155
REMARK   71  A    between atoms: _158  and  _160
REMARK   72  A    between atoms: _160  and  _161
REMARK   73  A    between atoms: _160  and  _163
REMARK   74  A    between atoms: _163  and  _164
REMARK   75  A    between atoms: _167  and  _169
REMARK   76  A    between atoms: _169  and  _170
REMARK   77  A    between atoms: _169  and  _172
REMARK   78  A    between atoms: _172  and  _173
REMARK   79  A    between atoms: _173  and  _174
REMARK   80  A    between atoms: _177  and  _179
REMARK   81  A    between atoms: _179  and  _180
REMARK   82  A    between atoms: _179  and  _182
REMARK   83  A    between atoms: _182  and  _183
REMARK   84  A    between atoms: _185  and  _187
REMARK   85  A    between atoms: _187  and  _188
REMARK   86  A    between atoms: _187  and  _190
REMARK   87  A    between atoms: _190  and  _191
REMARK   88  A    between atoms: _194  and  _196
REMARK   89  A    between atoms: _196  and  _197
REMARK   90  A    between atoms: _196  and  _199
REMARK   91  A    between atoms: _199  and  _200
REMARK   92  A    between atoms: _203  and  _205
REMARK   93  A    between atoms: _205  and  _206
REMARK   94  A    between atoms: _205  and  _208
REMARK   95  A    between atoms: _208  and  _209
REMARK   96  A    between atoms: _212  and  _214
REMARK   97  A    between atoms: _214  and  _215
REMARK   98  A    between atoms: _218  and  _220
REMARK   99  A    between atoms: _220  and  _221
REMARK  100  A    between atoms: _220  and  _223
REMARK  101  A    between atoms: _223  and  _224
REMARK  102  A    between atoms: _227  and  _229
REMARK  103  A    between atoms: _229  and  _230
REMARK  104  A    between atoms: _229  and  _232
REMARK  105  A    between atoms: _232  and  _233
REMARK  106  A    between atoms: _233  and  _234
REMARK  107  A    between atoms: _234  and  _235
REMARK  108  A    between atoms: _235  and  _236
REMARK  109  A    between atoms: _240  and  _242
REMARK  110  A    between atoms: _242  and  _243
REMARK  111  A    between atoms: _242  and  _245
REMARK  112  A    between atoms: _245  and  _246
REMARK  113  A    between atoms: _251  and  _252
REMARK  114  A    between atoms: _254  and  _256
REMARK  115  A    between atoms: _256  and  _257
REMARK  116  A    between atoms: _260  and  _262
REMARK  117  A    between atoms: _262  and  _263
REMARK  118  A    between atoms: _262  and  _265
REMARK  119  A    between atoms: _267  and  _269
REMARK  120  A    between atoms: _269  and  _270
REMARK  121  A    between atoms: _269  and  _272
REMARK  122  A    between atoms: _272  and  _273
REMARK  123  A    between atoms: _279  and  _281
REMARK  124  A    between atoms: _281  and  _282
REMARK  125  A    between atoms: _281  and  _284
REMARK  126  A    between atoms: _287  and  _289
REMARK  127  A    between atoms: _289  and  _290
REMARK  128  A    between atoms: _289  and  _292
REMARK  129  A    between atoms: _292  and  _293
REMARK  130  A    between atoms: _293  and  _294
REMARK  131  A    between atoms: _296  and  _298
REMARK  132  A    between atoms: _298  and  _299
REMARK  133  A    between atoms: _298  and  _301
REMARK  134  A    between atoms: _301  and  _302
REMARK  135  A    between atoms: _302  and  _303
REMARK  136  A    between atoms: _306  and  _308
REMARK  137  A    between atoms: _308  and  _309
REMARK  138  A    between atoms: _308  and  _311
REMARK  139  A    between atoms: _311  and  _312
REMARK  140  A    between atoms: _317  and  _318
REMARK  141  A    between atoms: _320  and  _322
REMARK  142  A    between atoms: _322  and  _323
REMARK  143  A    between atoms: _326  and  _328
REMARK  144  A    between atoms: _328  and  _329
REMARK  145  A    between atoms: _328  and  _331
REMARK  146  A    between atoms: _331  and  _332
REMARK  147  A    between atoms: _337  and  _339
REMARK  148  A    between atoms: _339  and  _340
REMARK  149  A    between atoms: _342  and  _344
REMARK  150  A    between atoms: _344  and  _345
REMARK  151  A    between atoms: _347  and  _349
REMARK  152  A    between atoms: _349  and  _350
REMARK  153  A    between atoms: _349  and  _352
REMARK  154  A    between atoms: _352  and  _353
REMARK  155  A    between atoms: _353  and  _354
REMARK  156  A    between atoms: _357  and  _359
REMARK  157  A    between atoms: _359  and  _360
REMARK  158  A    between atoms: _359  and  _362
REMARK  159  A    between atoms: _362  and  _363
REMARK  160  A    between atoms: _369  and  _371
REMARK  161  A    between atoms: _371  and  _372
REMARK  162  A    between atoms: _371  and  _374
REMARK  163  A    between atoms: _374  and  _375
REMARK  164  A    between atoms: _381  and  _383
REMARK  165  A    between atoms: _383  and  _384
REMARK  166  A    between atoms: _383  and  _386
REMARK  167  A    between atoms: _386  and  _387
REMARK  168  A    between atoms: _392  and  _393
REMARK  169  A    between atoms: _395  and  _397
REMARK  170  A    between atoms: _397  and  _398
REMARK  171  A    between atoms: _397  and  _400
REMARK  172  A    between atoms: _400  and  _401
REMARK  173  A    between atoms: _404  and  _406
REMARK  174  A    between atoms: _406  and  _407
REMARK  175  A    between atoms: _406  and  _409
REMARK  176  A    between atoms: _409  and  _410
REMARK  177  A    between atoms: _410  and  _411
REMARK  178  A    between atoms: _411  and  _412
REMARK  179  A    between atoms: _412  and  _413
REMARK  180  A    between atoms: _417  and  _419
REMARK  181  A    between atoms: _419  and  _420
REMARK  182  A    between atoms: _419  and  _422
REMARK  183  A    between atoms: _422  and  _423
REMARK  184  A    between atoms: _426  and  _428
REMARK  185  A    between atoms: _428  and  _429
REMARK  186  A    between atoms: _428  and  _431
REMARK  187  A    between atoms: _431  and  _432
REMARK  188  A    between atoms: _432  and  _433
REMARK  189  A    between atoms: _436  and  _438
REMARK  190  A    between atoms: _438  and  _439
REMARK  191  A    between atoms: _438  and  _441
REMARK  192  A    between atoms: _441  and  _442
REMARK  193  A    between atoms: _447  and  _449
REMARK  194  A    between atoms: _449  and  _450
REMARK  195  A    between atoms: _449  and  _452
REMARK  196  A    between atoms: _452  and  _453
REMARK  197  A    between atoms: _456  and  _458
REMARK  198  A    between atoms: _458  and  _459
REMARK  199  A    between atoms: _458  and  _461
REMARK  200  A    between atoms: _461  and  _462
REMARK  201  A    between atoms: _462  and  _463
REMARK  202  A    between atoms: _465  and  _467
REMARK  203  A    between atoms: _467  and  _468
REMARK  204  A    between atoms: _467  and  _470
REMARK  205  A    between atoms: _470  and  _471
REMARK  206  A    between atoms: _474  and  _476
REMARK  207  A    between atoms: _476  and  _477
REMARK  208  A    between atoms: _476  and  _479
REMARK  209  A    between atoms: _479  and  _480
REMARK  210  A    between atoms: _480  and  _481
REMARK  211  A    between atoms: _481  and  _482
REMARK  212  A    between atoms: _482  and  _483
REMARK  213  A    between atoms: _487  and  _489
REMARK  214  A    between atoms: _489  and  _490
REMARK  215  A    between atoms: _489  and  _492
REMARK  216  A    between atoms: _492  and  _493
REMARK  217  A    between atoms: _496  and  _498
REMARK  218  A    between atoms: _498  and  _499
REMARK  219  A    between atoms: _498  and  _501
REMARK  220  A    between atoms: _501  and  _502
REMARK  221  A    between atoms: _505  and  _507
REMARK  222  A    between atoms: _507  and  _508
REMARK  223  A    between atoms: _507  and  _510
REMARK  224  A    between atoms: _510  and  _511
REMARK  225  A    between atoms: _514  and  _516
REMARK  226  A    between atoms: _516  and  _517
REMARK  227  A    between atoms: _516  and  _519
REMARK  228  A    between atoms: _519  and  _520
REMARK  229  A    between atoms: _526  and  _528
REMARK  230  A    between atoms: _528  and  _529
REMARK  231  A    between atoms: _531  and  _533
REMARK  232  A    between atoms: _533  and  _534
REMARK  233  A    between atoms: _533  and  _536
REMARK  234  A    between atoms: _536  and  _537
REMARK  235  A    between atoms: _540  and  _542
REMARK  236  A    between atoms: _542  and  _543
REMARK  237  A    between atoms: _542  and  _545
REMARK  238  A    between atoms: _547  and  _549
REMARK  239  A    between atoms: _549  and  _550
REMARK  240  A    between atoms: _549  and  _552
REMARK  241  A    between atoms: _552  and  _553
REMARK  242  A    between atoms: _559  and  _561
REMARK  243  A    between atoms: _561  and  _562
REMARK  244  A    between atoms: _561  and  _564
REMARK  245  A    between atoms: _564  and  _565
REMARK  246  A    between atoms: _568  and  _570
REMARK  247  A    between atoms: _570  and  _571
REMARK  248  A    between atoms: _570  and  _573
REMARK  249  A    between atoms: _573  and  _574
REMARK  250  A    between atoms: _574  and  _575
REMARK  251  A    between atoms: _578  and  _580
REMARK  252  A    between atoms: _580  and  _581
REMARK  253  A    between atoms: _580  and  _583
REMARK  254  A    between atoms: _583  and  _584
REMARK  255  A    between atoms: _590  and  _592
REMARK  256  A    between atoms: _592  and  _593
REMARK  257  A    between atoms: _592  and  _595
REMARK  258  A    between atoms: _595  and  _596
REMARK                            x       y       z     vdW  Elec       q    Type
REMARK                         _______ _______ _______ _____ _____    ______ ____
ROOT
ATOM      1  O   HOH     1      19.632 -20.121  13.415  0.00  0.00    +0.000 OA
ENDROOT
TORSDOF 0
REMARK  Name = ../refined-set-2016/3d0e/3d0e_pocket.pdb
REMARK  258 active torsions:
REMARK  status: ('A' for Active; 'I' for Inactive)
REMARK    1  A    between atoms: _1  and  _3
REMARK    2  A    between atoms: _3  and  _4
REMARK    3  A    between atoms: _3  and  _6
REMARK    4  A    between atoms: _6  and  _7
REMARK    5  A    between atoms: _10  and  _12
REMARK    6  A    between atoms: _12  and  _13
REMARK    7  A    between atoms: _12  and  _15
REMARK    8  A    between atoms: _15  and  _16
REMARK    9  A    between atoms: _19  and  _21
REMARK   10  A    between atoms: _21  and  _22
REMARK   11  A    between atoms: _24  and  _26
REMARK   12  A    between atoms: _26  and  _27
REMARK   13  A    between atoms: _26  and  _29
REMARK   14  A    between atoms: _29  and  _30
REMARK   15  A    between atoms: _30  and  _31
REMARK   16  A    between atoms: _31  and  _32
REMARK   17  A    between atoms: _32  and  _33
REMARK   18  A    between atoms: _37  and  _39
REMARK   19  A    between atoms: _39  and  _40
REMARK   20  A    between atoms: _42  and  _44
REMARK   21  A    between atoms: _44  and  _45
REMARK   22  A    between atoms: _44  and  _47
REMARK   23  A    between atoms: _47  and  _48
REMARK   24  A    between atoms: _51  and  _53
REMARK   25  A    between atoms: _53  and  _54
REMARK   26  A    between atoms: _53  and  _56
REMARK   27  A    between atoms: _56  and  _57
REMARK   28  A    between atoms: _63  and  _65
REMARK   29  A    between atoms: _65  and  _66
REMARK   30  A    between atoms: _68  and  _70
REMARK   31  A    between atoms: _70  and  _71
REMARK   32  A    between atoms: _70  and  _73
REMARK   33  A    between atoms: _73  and  _74
REMARK   34  A    between atoms: _74  and  _75
REMARK   35  A    between atoms: _75  and  _76
REMARK   36  A    between atoms: _76  and  _77
REMARK   37  A    between atoms: _81  and  _83
REMARK   38  A    between atoms: _83  and  _84
REMARK   39  A    between atoms: _83  and  _86
REMARK   40  A    between atoms: _89  and  _91
REMARK   41  A    between atoms: _91  and  _92
REMARK   42  A    between atoms: _91  and  _94
REMARK   43  A    between atoms: _94  and  _95
REMARK   44  A    between atoms: _98  and  _100
REMARK   45  A    between atoms: _100  and  _101
REMARK   46  A    between atoms: _100  and  _103
REMARK   47  A    between atoms: _103  and  _104
REMARK   48  A    between atoms: _107  and  _109
REMARK   49  A    between atoms: _109  and  _110
REMARK   50  A    between atoms: _109  and  _112
REMARK   51  A    between atoms: _112  and  _113
REMARK   52  A    between atoms: _118  and  _119
REMARK   53  A    between atoms: _121  and  _123
REMARK   54  A    between atoms: _123  and  _124
REMARK   55  A    between atoms: _127  and  _129
REMARK   56  A    between atoms: _129  and  _130
REMARK   57  A    between atoms: _129  and  _132
REMARK   58  A    between atoms: _132  and  _133
REMARK   59  A    between atoms: _133  and  _134
REMARK   60  A    between atoms: _136  and  _138
REMARK   61  A    between atoms: _138  and  _139
REMARK   62  A    between atoms: _138  and  _141
REMARK   63  A    between atoms: _141  and  _142
REMARK   64  A    between atoms: _142  and  _143
REMARK   65  A    between atoms: _143  and  _144
REMARK   66  A    between atoms: _144  and  _145
REMARK   67  A    between atoms: _149  and  _151
REMARK   68  A    between atoms: _151  and  _152
REMARK   69  A    between atoms: _151  and  _154
REMARK   70  A    between atoms: _154  and  _155
REMARK   71  A    between atoms: _158  and  _160
REMARK   72  A    between atoms: _160  and  _161
REMARK   73  A    between atoms: _160  and  _163
REMARK   74  A    between atoms: _163  and  _164
REMARK   75  A    between atoms: _167  and  _169
REMARK   76  A    between atoms: _169  and  _170
REMARK   77  A    between atoms: _169  and  _172
REMARK   78  A    between atoms: _172  and  _173
REMARK   79  A    between atoms: _173  and  _174
REMARK   80  A    between atoms: _177  and  _179
REMARK   81  A    between atoms: _179  and  _180
REMARK   82  A    between atoms: _179  and  _182
REMARK   83  A    between atoms: _182  and  _183
REMARK   84  A    between atoms: _185  and  _187
REMARK   85  A    between atoms: _187  and  _188
REMARK   86  A    between atoms: _187  and  _190
REMARK   87  A    between atoms: _190  and  _191
REMARK   88  A    between atoms: _194  and  _196
REMARK   89  A    between atoms: _196  and  _197
REMARK   90  A    between atoms: _196  and  _199
REMARK   91  A    between atoms: _199  and  _200
REMARK   92  A    between atoms: _203  and  _205
REMARK   93  A    between atoms: _205  and  _206
REMARK   94  A    between atoms: _205  and  _208
REMARK   95  A    between atoms: _208  and  _209
REMARK   96  A    between atoms: _212  and  _214
REMARK   97  A    between atoms: _214  and  _215
REMARK   98  A    between atoms: _218  and  _220
REMARK   99  A    between atoms: _220  and  _221
REMARK  100  A    between atoms: _220  and  _223
REMARK  101  A    between atoms: _223  and  _224
REMARK  102  A    between atoms: _227  and  _229
REMARK  103  A    between atoms: _229  and  _230
REMARK  104  A    between atoms: _229  and  _232
REMARK  105  A    between atoms: _232  and  _233
REMARK  106  A    between atoms: _233  and  _234
REMARK  107  A    between atoms: _234  and  _235
REMARK  108  A    between atoms: _235  and  _236
REMARK  109  A    between atoms: _240  and  _242
REMARK  110  A    between atoms: _242  and  _243
REMARK  111  A    between atoms: _242  and  _245
REMARK  112  A    between atoms: _245  and  _246
REMARK  113  A    between atoms: _251  and  _252
REMARK  114  A    between atoms: _254  and  _256
REMARK  115  A    between atoms: _256  and  _257
REMARK  116  A    between atoms: _260  and  _262
REMARK  117  A    between atoms: _262  and  _263
REMARK  118  A    between atoms: _262  and  _265
REMARK  119  A    between atoms: _267  and  _269
REMARK  120  A    between atoms: _269  and  _270
REMARK  121  A    between atoms: _269  and  _272
REMARK  122  A    between atoms: _272  and  _273
REMARK  123  A    between atoms: _279  and  _281
REMARK  124  A    between atoms: _281  and  _282
REMARK  125  A    between atoms: _281  and  _284
REMARK  126  A    between atoms: _287  and  _289
REMARK  127  A    between atoms: _289  and  _290
REMARK  128  A    between atoms: _289  and  _292
REMARK  129  A    between atoms: _292  and  _293
REMARK  130  A    between atoms: _293  and  _294
REMARK  131  A    between atoms: _296  and  _298
REMARK  132  A    between atoms: _298  and  _299
REMARK  133  A    between atoms: _298  and  _301
REMARK  134  A    between atoms: _301  and  _302
REMARK  135  A    between atoms: _302  and  _303
REMARK  136  A    between atoms: _306  and  _308
REMARK  137  A    between atoms: _308  and  _309
REMARK  138  A    between atoms: _308  and  _311
REMARK  139  A    between atoms: _311  and  _312
REMARK  140  A    between atoms: _317  and  _318
REMARK  141  A    between atoms: _320  and  _322
REMARK  142  A    between atoms: _322  and  _323
REMARK  143  A    between atoms: _326  and  _328
REMARK  144  A    between atoms: _328  and  _329
REMARK  145  A    between atoms: _328  and  _331
REMARK  146  A    between atoms: _331  and  _332
REMARK  147  A    between atoms: _337  and  _339
REMARK  148  A    between atoms: _339  and  _340
REMARK  149  A    between atoms: _342  and  _344
REMARK  150  A    between atoms: _344  and  _345
REMARK  151  A    between atoms: _347  and  _349
REMARK  152  A    between atoms: _349  and  _350
REMARK  153  A    between atoms: _349  and  _352
REMARK  154  A    between atoms: _352  and  _353
REMARK  155  A    between atoms: _353  and  _354
REMARK  156  A    between atoms: _357  and  _359
REMARK  157  A    between atoms: _359  and  _360
REMARK  158  A    between atoms: _359  and  _362
REMARK  159  A    between atoms: _362  and  _363
REMARK  160  A    between atoms: _369  and  _371
REMARK  161  A    between atoms: _371  and  _372
REMARK  162  A    between atoms: _371  and  _374
REMARK  163  A    between atoms: _374  and  _375
REMARK  164  A    between atoms: _381  and  _383
REMARK  165  A    between atoms: _383  and  _384
REMARK  166  A    between atoms: _383  and  _386
REMARK  167  A    between atoms: _386  and  _387
REMARK  168  A    between atoms: _392  and  _393
REMARK  169  A    between atoms: _395  and  _397
REMARK  170  A    between atoms: _397  and  _398
REMARK  171  A    between atoms: _397  and  _400
REMARK  172  A    between atoms: _400  and  _401
REMARK  173  A    between atoms: _404  and  _406
REMARK  174  A    between atoms: _406  and  _407
REMARK  175  A    between atoms: _406  and  _409
REMARK  176  A    between atoms: _409  and  _410
REMARK  177  A    between atoms: _410  and  _411
REMARK  178  A    between atoms: _411  and  _412
REMARK  179  A    between atoms: _412  and  _413
REMARK  180  A    between atoms: _417  and  _419
REMARK  181  A    between atoms: _419  and  _420
REMARK  182  A    between atoms: _419  and  _422
REMARK  183  A    between atoms: _422  and  _423
REMARK  184  A    between atoms: _426  and  _428
REMARK  185  A    between atoms: _428  and  _429
REMARK  186  A    between atoms: _428  and  _431
REMARK  187  A    between atoms: _431  and  _432
REMARK  188  A    between atoms: _432  and  _433
REMARK  189  A    between atoms: _436  and  _438
REMARK  190  A    between atoms: _438  and  _439
REMARK  191  A    between atoms: _438  and  _441
REMARK  192  A    between atoms: _441  and  _442
REMARK  193  A    between atoms: _447  and  _449
REMARK  194  A    between atoms: _449  and  _450
REMARK  195  A    between atoms: _449  and  _452
REMARK  196  A    between atoms: _452  and  _453
REMARK  197  A    between atoms: _456  and  _458
REMARK  198  A    between atoms: _458  and  _459
REMARK  199  A    between atoms: _458  and  _461
REMARK  200  A    between atoms: _461  and  _462
REMARK  201  A    between atoms: _462  and  _463
REMARK  202  A    between atoms: _465  and  _467
REMARK  203  A    between atoms: _467  and  _468
REMARK  204  A    between atoms: _467  and  _470
REMARK  205  A    between atoms: _470  and  _471
REMARK  206  A    between atoms: _474  and  _476
REMARK  207  A    between atoms: _476  and  _477
REMARK  208  A    between atoms: _476  and  _479
REMARK  209  A    between atoms: _479  and  _480
REMARK  210  A    between atoms: _480  and  _481
REMARK  211  A    between atoms: _481  and  _482
REMARK  212  A    between atoms: _482  and  _483
REMARK  213  A    between atoms: _487  and  _489
REMARK  214  A    between atoms: _489  and  _490
REMARK  215  A    between atoms: _489  and  _492
REMARK  216  A    between atoms: _492  and  _493
REMARK  217  A    between atoms: _496  and  _498
REMARK  218  A    between atoms: _498  and  _499
REMARK  219  A    between atoms: _498  and  _501
REMARK  220  A    between atoms: _501  and  _502
REMARK  221  A    between atoms: _505  and  _507
REMARK  222  A    between atoms: _507  and  _508
REMARK  223  A    between atoms: _507  and  _510
REMARK  224  A    between atoms: _510  and  _511
REMARK  225  A    between atoms: _514  and  _516
REMARK  226  A    between atoms: _516  and  _517
REMARK  227  A    between atoms: _516  and  _519
REMARK  228  A    between atoms: _519  and  _520
REMARK  229  A    between atoms: _526  and  _528
REMARK  230  A    between atoms: _528  and  _529
REMARK  231  A    between atoms: _531  and  _533
REMARK  232  A    between atoms: _533  and  _534
REMARK  233  A    between atoms: _533  and  _536
REMARK  234  A    between atoms: _536  and  _537
REMARK  235  A    between atoms: _540  and  _542
REMARK  236  A    between atoms: _542  and  _543
REMARK  237  A    between atoms: _542  and  _545
REMARK  238  A    between atoms: _547  and  _549
REMARK  239  A    between atoms: _549  and  _550
REMARK  240  A    between atoms: _549  and  _552
REMARK  241  A    between atoms: _552  and  _553
REMARK  242  A    between atoms: _559  and  _561
REMARK  243  A    between atoms: _561  and  _562
REMARK  244  A    between atoms: _561  and  _564
REMARK  245  A    between atoms: _564  and  _565
REMARK  246  A    between atoms: _568  and  _570
REMARK  247  A    between atoms: _570  and  _571
REMARK  248  A    between atoms: _570  and  _573
REMARK  249  A    between atoms: _573  and  _574
REMARK  250  A    between atoms: _574  and  _575
REMARK  251  A    between atoms: _578  and  _580
REMARK  252  A    between atoms: _580  and  _581
REMARK  253  A    between atoms: _580  and  _583
REMARK  254  A    between atoms: _583  and  _584
REMARK  255  A    between atoms: _590  and  _592
REMARK  256  A    between atoms: _592  and  _593
REMARK  257  A    between atoms: _592  and  _595
REMARK  258  A    between atoms: _595  and  _596
REMARK                            x       y       z     vdW  Elec       q    Type
REMARK                         _______ _______ _______ _____ _____    ______ ____
ROOT
ATOM      1  O   HOH     1      20.706 -31.094  15.320  0.00  0.00    +0.000 OA
ENDROOT
TORSDOF 0
REMARK  Name = ../refined-set-2016/3d0e/3d0e_pocket.pdb
REMARK  258 active torsions:
REMARK  status: ('A' for Active; 'I' for Inactive)
REMARK    1  A    between atoms: _1  and  _3
REMARK    2  A    between atoms: _3  and  _4
REMARK    3  A    between atoms: _3  and  _6
REMARK    4  A    between atoms: _6  and  _7
REMARK    5  A    between atoms: _10  and  _12
REMARK    6  A    between atoms: _12  and  _13
REMARK    7  A    between atoms: _12  and  _15
REMARK    8  A    between atoms: _15  and  _16
REMARK    9  A    between atoms: _19  and  _21
REMARK   10  A    between atoms: _21  and  _22
REMARK   11  A    between atoms: _24  and  _26
REMARK   12  A    between atoms: _26  and  _27
REMARK   13  A    between atoms: _26  and  _29
REMARK   14  A    between atoms: _29  and  _30
REMARK   15  A    between atoms: _30  and  _31
REMARK   16  A    between atoms: _31  and  _32
REMARK   17  A    between atoms: _32  and  _33
REMARK   18  A    between atoms: _37  and  _39
REMARK   19  A    between atoms: _39  and  _40
REMARK   20  A    between atoms: _42  and  _44
REMARK   21  A    between atoms: _44  and  _45
REMARK   22  A    between atoms: _44  and  _47
REMARK   23  A    between atoms: _47  and  _48
REMARK   24  A    between atoms: _51  and  _53
REMARK   25  A    between atoms: _53  and  _54
REMARK   26  A    between atoms: _53  and  _56
REMARK   27  A    between atoms: _56  and  _57
REMARK   28  A    between atoms: _63  and  _65
REMARK   29  A    between atoms: _65  and  _66
REMARK   30  A    between atoms: _68  and  _70
REMARK   31  A    between atoms: _70  and  _71
REMARK   32  A    between atoms: _70  and  _73
REMARK   33  A    between atoms: _73  and  _74
REMARK   34  A    between atoms: _74  and  _75
REMARK   35  A    between atoms: _75  and  _76
REMARK   36  A    between atoms: _76  and  _77
REMARK   37  A    between atoms: _81  and  _83
REMARK   38  A    between atoms: _83  and  _84
REMARK   39  A    between atoms: _83  and  _86
REMARK   40  A    between atoms: _89  and  _91
REMARK   41  A    between atoms: _91  and  _92
REMARK   42  A    between atoms: _91  and  _94
REMARK   43  A    between atoms: _94  and  _95
REMARK   44  A    between atoms: _98  and  _100
REMARK   45  A    between atoms: _100  and  _101
REMARK   46  A    between atoms: _100  and  _103
REMARK   47  A    between atoms: _103  and  _104
REMARK   48  A    between atoms: _107  and  _109
REMARK   49  A    between atoms: _109  and  _110
REMARK   50  A    between atoms: _109  and  _112
REMARK   51  A    between atoms: _112  and  _113
REMARK   52  A    between atoms: _118  and  _119
REMARK   53  A    between atoms: _121  and  _123
REMARK   54  A    between atoms: _123  and  _124
REMARK   55  A    between atoms: _127  and  _129
REMARK   56  A    between atoms: _129  and  _130
REMARK   57  A    between atoms: _129  and  _132
REMARK   58  A    between atoms: _132  and  _133
REMARK   59  A    between atoms: _133  and  _134
REMARK   60  A    between atoms: _136  and  _138
REMARK   61  A    between atoms: _138  and  _139
REMARK   62  A    between atoms: _138  and  _141
REMARK   63  A    between atoms: _141  and  _142
REMARK   64  A    between atoms: _142  and  _143
REMARK   65  A    between atoms: _143  and  _144
REMARK   66  A    between atoms: _144  and  _145
REMARK   67  A    between atoms: _149  and  _151
REMARK   68  A    between atoms: _151  and  _152
REMARK   69  A    between atoms: _151  and  _154
REMARK   70  A    between atoms: _154  and  _155
REMARK   71  A    between atoms: _158  and  _160
REMARK   72  A    between atoms: _160  and  _161
REMARK   73  A    between atoms: _160  and  _163
REMARK   74  A    between atoms: _163  and  _164
REMARK   75  A    between atoms: _167  and  _169
REMARK   76  A    between atoms: _169  and  _170
REMARK   77  A    between atoms: _169  and  _172
REMARK   78  A    between atoms: _172  and  _173
REMARK   79  A    between atoms: _173  and  _174
REMARK   80  A    between atoms: _177  and  _179
REMARK   81  A    between atoms: _179  and  _180
REMARK   82  A    between atoms: _179  and  _182
REMARK   83  A    between atoms: _182  and  _183
REMARK   84  A    between atoms: _185  and  _187
REMARK   85  A    between atoms: _187  and  _188
REMARK   86  A    between atoms: _187  and  _190
REMARK   87  A    between atoms: _190  and  _191
REMARK   88  A    between atoms: _194  and  _196
REMARK   89  A    between atoms: _196  and  _197
REMARK   90  A    between atoms: _196  and  _199
REMARK   91  A    between atoms: _199  and  _200
REMARK   92  A    between atoms: _203  and  _205
REMARK   93  A    between atoms: _205  and  _206
REMARK   94  A    between atoms: _205  and  _208
REMARK   95  A    between atoms: _208  and  _209
REMARK   96  A    between atoms: _212  and  _214
REMARK   97  A    between atoms: _214  and  _215
REMARK   98  A    between atoms: _218  and  _220
REMARK   99  A    between atoms: _220  and  _221
REMARK  100  A    between atoms: _220  and  _223
REMARK  101  A    between atoms: _223  and  _224
REMARK  102  A    between atoms: _227  and  _229
REMARK  103  A    between atoms: _229  and  _230
REMARK  104  A    between atoms: _229  and  _232
REMARK  105  A    between atoms: _232  and  _233
REMARK  106  A    between atoms: _233  and  _234
REMARK  107  A    between atoms: _234  and  _235
REMARK  108  A    between atoms: _235  and  _236
REMARK  109  A    between atoms: _240  and  _242
REMARK  110  A    between atoms: _242  and  _243
REMARK  111  A    between atoms: _242  and  _245
REMARK  112  A    between atoms: _245  and  _246
REMARK  113  A    between atoms: _251  and  _252
REMARK  114  A    between atoms: _254  and  _256
REMARK  115  A    between atoms: _256  and  _257
REMARK  116  A    between atoms: _260  and  _262
REMARK  117  A    between atoms: _262  and  _263
REMARK  118  A    between atoms: _262  and  _265
REMARK  119  A    between atoms: _267  and  _269
REMARK  120  A    between atoms: _269  and  _270
REMARK  121  A    between atoms: _269  and  _272
REMARK  122  A    between atoms: _272  and  _273
REMARK  123  A    between atoms: _279  and  _281
REMARK  124  A    between atoms: _281  and  _282
REMARK  125  A    between atoms: _281  and  _284
REMARK  126  A    between atoms: _287  and  _289
REMARK  127  A    between atoms: _289  and  _290
REMARK  128  A    between atoms: _289  and  _292
REMARK  129  A    between atoms: _292  and  _293
REMARK  130  A    between atoms: _293  and  _294
REMARK  131  A    between atoms: _296  and  _298
REMARK  132  A    between atoms: _298  and  _299
REMARK  133  A    between atoms: _298  and  _301
REMARK  134  A    between atoms: _301  and  _302
REMARK  135  A    between atoms: _302  and  _303
REMARK  136  A    between atoms: _306  and  _308
REMARK  137  A    between atoms: _308  and  _309
REMARK  138  A    between atoms: _308  and  _311
REMARK  139  A    between atoms: _311  and  _312
REMARK  140  A    between atoms: _317  and  _318
REMARK  141  A    between atoms: _320  and  _322
REMARK  142  A    between atoms: _322  and  _323
REMARK  143  A    between atoms: _326  and  _328
REMARK  144  A    between atoms: _328  and  _329
REMARK  145  A    between atoms: _328  and  _331
REMARK  146  A    between atoms: _331  and  _332
REMARK  147  A    between atoms: _337  and  _339
REMARK  148  A    between atoms: _339  and  _340
REMARK  149  A    between atoms: _342  and  _344
REMARK  150  A    between atoms: _344  and  _345
REMARK  151  A    between atoms: _347  and  _349
REMARK  152  A    between atoms: _349  and  _350
REMARK  153  A    between atoms: _349  and  _352
REMARK  154  A    between atoms: _352  and  _353
REMARK  155  A    between atoms: _353  and  _354
REMARK  156  A    between atoms: _357  and  _359
REMARK  157  A    between atoms: _359  and  _360
REMARK  158  A    between atoms: _359  and  _362
REMARK  159  A    between atoms: _362  and  _363
REMARK  160  A    between atoms: _369  and  _371
REMARK  161  A    between atoms: _371  and  _372
REMARK  162  A    between atoms: _371  and  _374
REMARK  163  A    between atoms: _374  and  _375
REMARK  164  A    between atoms: _381  and  _383
REMARK  165  A    between atoms: _383  and  _384
REMARK  166  A    between atoms: _383  and  _386
REMARK  167  A    between atoms: _386  and  _387
REMARK  168  A    between atoms: _392  and  _393
REMARK  169  A    between atoms: _395  and  _397
REMARK  170  A    between atoms: _397  and  _398
REMARK  171  A    between atoms: _397  and  _400
REMARK  172  A    between atoms: _400  and  _401
REMARK  173  A    between atoms: _404  and  _406
REMARK  174  A    between atoms: _406  and  _407
REMARK  175  A    between atoms: _406  and  _409
REMARK  176  A    between atoms: _409  and  _410
REMARK  177  A    between atoms: _410  and  _411
REMARK  178  A    between atoms: _411  and  _412
REMARK  179  A    between atoms: _412  and  _413
REMARK  180  A    between atoms: _417  and  _419
REMARK  181  A    between atoms: _419  and  _420
REMARK  182  A    between atoms: _419  and  _422
REMARK  183  A    between atoms: _422  and  _423
REMARK  184  A    between atoms: _426  and  _428
REMARK  185  A    between atoms: _428  and  _429
REMARK  186  A    between atoms: _428  and  _431
REMARK  187  A    between atoms: _431  and  _432
REMARK  188  A    between atoms: _432  and  _433
REMARK  189  A    between atoms: _436  and  _438
REMARK  190  A    between atoms: _438  and  _439
REMARK  191  A    between atoms: _438  and  _441
REMARK  192  A    between atoms: _441  and  _442
REMARK  193  A    between atoms: _447  and  _449
REMARK  194  A    between atoms: _449  and  _450
REMARK  195  A    between atoms: _449  and  _452
REMARK  196  A    between atoms: _452  and  _453
REMARK  197  A    between atoms: _456  and  _458
REMARK  198  A    between atoms: _458  and  _459
REMARK  199  A    between atoms: _458  and  _461
REMARK  200  A    between atoms: _461  and  _462
REMARK  201  A    between atoms: _462  and  _463
REMARK  202  A    between atoms: _465  and  _467
REMARK  203  A    between atoms: _467  and  _468
REMARK  204  A    between atoms: _467  and  _470
REMARK  205  A    between atoms: _470  and  _471
REMARK  206  A    between atoms: _474  and  _476
REMARK  207  A    between atoms: _476  and  _477
REMARK  208  A    between atoms: _476  and  _479
REMARK  209  A    between atoms: _479  and  _480
REMARK  210  A    between atoms: _480  and  _481
REMARK  211  A    between atoms: _481  and  _482
REMARK  212  A    between atoms: _482  and  _483
REMARK  213  A    between atoms: _487  and  _489
REMARK  214  A    between atoms: _489  and  _490
REMARK  215  A    between atoms: _489  and  _492
REMARK  216  A    between atoms: _492  and  _493
REMARK  217  A    between atoms: _496  and  _498
REMARK  218  A    between atoms: _498  and  _499
REMARK  219  A    between atoms: _498  and  _501
REMARK  220  A    between atoms: _501  and  _502
REMARK  221  A    between atoms: _505  and  _507
REMARK  222  A    between atoms: _507  and  _508
REMARK  223  A    between atoms: _507  and  _510
REMARK  224  A    between atoms: _510  and  _511
REMARK  225  A    between atoms: _514  and  _516
REMARK  226  A    between atoms: _516  and  _517
REMARK  227  A    between atoms: _516  and  _519
REMARK  228  A    between atoms: _519  and  _520
REMARK  229  A    between atoms: _526  and  _528
REMARK  230  A    between atoms: _528  and  _529
REMARK  231  A    between atoms: _531  and  _533
REMARK  232  A    between atoms: _533  and  _534
REMARK  233  A    between atoms: _533  and  _536
REMARK  234  A    between atoms: _536  and  _537
REMARK  235  A    between atoms: _540  and  _542
REMARK  236  A    between atoms: _542  and  _543
REMARK  237  A    between atoms: _542  and  _545
REMARK  238  A    between atoms: _547  and  _549
REMARK  239  A    between atoms: _549  and  _550
REMARK  240  A    between atoms: _549  and  _552
REMARK  241  A    between atoms: _552  and  _553
REMARK  242  A    between atoms: _559  and  _561
REMARK  243  A    between atoms: _561  and  _562
REMARK  244  A    between atoms: _561  and  _564
REMARK  245  A    between atoms: _564  and  _565
REMARK  246  A    between atoms: _568  and  _570
REMARK  247  A    between atoms: _570  and  _571
REMARK  248  A    between atoms: _570  and  _573
REMARK  249  A    between atoms: _573  and  _574
REMARK  250  A    between atoms: _574  and  _575
REMARK  251  A    between atoms: _578  and  _580
REMARK  252  A    between atoms: _580  and  _581
REMARK  253  A    between atoms: _580  and  _583
REMARK  254  A    between atoms: _583  and  _584
REMARK  255  A    between atoms: _590  and  _592
REMARK  256  A    between atoms: _592  and  _593
REMARK  257  A    between atoms: _592  and  _595
REMARK  258  A    between atoms: _595  and  _596
REMARK                            x       y       z     vdW  Elec       q    Type
REMARK                         _______ _______ _______ _____ _____    ______ ____
ROOT
ATOM      1  O   HOH     1      20.452  -8.373   0.561  0.00  0.00    +0.000 OA
ENDROOT
TORSDOF 0
REMARK  Name = ../refined-set-2016/3d0e/3d0e_pocket.pdb
REMARK  258 active torsions:
REMARK  status: ('A' for Active; 'I' for Inactive)
REMARK    1  A    between atoms: _1  and  _3
REMARK    2  A    between atoms: _3  and  _4
REMARK    3  A    between atoms: _3  and  _6
REMARK    4  A    between atoms: _6  and  _7
REMARK    5  A    between atoms: _10  and  _12
REMARK    6  A    between atoms: _12  and  _13
REMARK    7  A    between atoms: _12  and  _15
REMARK    8  A    between atoms: _15  and  _16
REMARK    9  A    between atoms: _19  and  _21
REMARK   10  A    between atoms: _21  and  _22
REMARK   11  A    between atoms: _24  and  _26
REMARK   12  A    between atoms: _26  and  _27
REMARK   13  A    between atoms: _26  and  _29
REMARK   14  A    between atoms: _29  and  _30
REMARK   15  A    between atoms: _30  and  _31
REMARK   16  A    between atoms: _31  and  _32
REMARK   17  A    between atoms: _32  and  _33
REMARK   18  A    between atoms: _37  and  _39
REMARK   19  A    between atoms: _39  and  _40
REMARK   20  A    between atoms: _42  and  _44
REMARK   21  A    between atoms: _44  and  _45
REMARK   22  A    between atoms: _44  and  _47
REMARK   23  A    between atoms: _47  and  _48
REMARK   24  A    between atoms: _51  and  _53
REMARK   25  A    between atoms: _53  and  _54
REMARK   26  A    between atoms: _53  and  _56
REMARK   27  A    between atoms: _56  and  _57
REMARK   28  A    between atoms: _63  and  _65
REMARK   29  A    between atoms: _65  and  _66
REMARK   30  A    between atoms: _68  and  _70
REMARK   31  A    between atoms: _70  and  _71
REMARK   32  A    between atoms: _70  and  _73
REMARK   33  A    between atoms: _73  and  _74
REMARK   34  A    between atoms: _74  and  _75
REMARK   35  A    between atoms: _75  and  _76
REMARK   36  A    between atoms: _76  and  _77
REMARK   37  A    between atoms: _81  and  _83
REMARK   38  A    between atoms: _83  and  _84
REMARK   39  A    between atoms: _83  and  _86
REMARK   40  A    between atoms: _89  and  _91
REMARK   41  A    between atoms: _91  and  _92
REMARK   42  A    between atoms: _91  and  _94
REMARK   43  A    between atoms: _94  and  _95
REMARK   44  A    between atoms: _98  and  _100
REMARK   45  A    between atoms: _100  and  _101
REMARK   46  A    between atoms: _100  and  _103
REMARK   47  A    between atoms: _103  and  _104
REMARK   48  A    between atoms: _107  and  _109
REMARK   49  A    between atoms: _109  and  _110
REMARK   50  A    between atoms: _109  and  _112
REMARK   51  A    between atoms: _112  and  _113
REMARK   52  A    between atoms: _118  and  _119
REMARK   53  A    between atoms: _121  and  _123
REMARK   54  A    between atoms: _123  and  _124
REMARK   55  A    between atoms: _127  and  _129
REMARK   56  A    between atoms: _129  and  _130
REMARK   57  A    between atoms: _129  and  _132
REMARK   58  A    between atoms: _132  and  _133
REMARK   59  A    between atoms: _133  and  _134
REMARK   60  A    between atoms: _136  and  _138
REMARK   61  A    between atoms: _138  and  _139
REMARK   62  A    between atoms: _138  and  _141
REMARK   63  A    between atoms: _141  and  _142
REMARK   64  A    between atoms: _142  and  _143
REMARK   65  A    between atoms: _143  and  _144
REMARK   66  A    between atoms: _144  and  _145
REMARK   67  A    between atoms: _149  and  _151
REMARK   68  A    between atoms: _151  and  _152
REMARK   69  A    between atoms: _151  and  _154
REMARK   70  A    between atoms: _154  and  _155
REMARK   71  A    between atoms: _158  and  _160
REMARK   72  A    between atoms: _160  and  _161
REMARK   73  A    between atoms: _160  and  _163
REMARK   74  A    between atoms: _163  and  _164
REMARK   75  A    between atoms: _167  and  _169
REMARK   76  A    between atoms: _169  and  _170
REMARK   77  A    between atoms: _169  and  _172
REMARK   78  A    between atoms: _172  and  _173
REMARK   79  A    between atoms: _173  and  _174
REMARK   80  A    between atoms: _177  and  _179
REMARK   81  A    between atoms: _179  and  _180
REMARK   82  A    between atoms: _179  and  _182
REMARK   83  A    between atoms: _182  and  _183
REMARK   84  A    between atoms: _185  and  _187
REMARK   85  A    between atoms: _187  and  _188
REMARK   86  A    between atoms: _187  and  _190
REMARK   87  A    between atoms: _190  and  _191
REMARK   88  A    between atoms: _194  and  _196
REMARK   89  A    between atoms: _196  and  _197
REMARK   90  A    between atoms: _196  and  _199
REMARK   91  A    between atoms: _199  and  _200
REMARK   92  A    between atoms: _203  and  _205
REMARK   93  A    between atoms: _205  and  _206
REMARK   94  A    between atoms: _205  and  _208
REMARK   95  A    between atoms: _208  and  _209
REMARK   96  A    between atoms: _212  and  _214
REMARK   97  A    between atoms: _214  and  _215
REMARK   98  A    between atoms: _218  and  _220
REMARK   99  A    between atoms: _220  and  _221
REMARK  100  A    between atoms: _220  and  _223
REMARK  101  A    between atoms: _223  and  _224
REMARK  102  A    between atoms: _227  and  _229
REMARK  103  A    between atoms: _229  and  _230
REMARK  104  A    between atoms: _229  and  _232
REMARK  105  A    between atoms: _232  and  _233
REMARK  106  A    between atoms: _233  and  _234
REMARK  107  A    between atoms: _234  and  _235
REMARK  108  A    between atoms: _235  and  _236
REMARK  109  A    between atoms: _240  and  _242
REMARK  110  A    between atoms: _242  and  _243
REMARK  111  A    between atoms: _242  and  _245
REMARK  112  A    between atoms: _245  and  _246
REMARK  113  A    between atoms: _251  and  _252
REMARK  114  A    between atoms: _254  and  _256
REMARK  115  A    between atoms: _256  and  _257
REMARK  116  A    between atoms: _260  and  _262
REMARK  117  A    between atoms: _262  and  _263
REMARK  118  A    between atoms: _262  and  _265
REMARK  119  A    between atoms: _267  and  _269
REMARK  120  A    between atoms: _269  and  _270
REMARK  121  A    between atoms: _269  and  _272
REMARK  122  A    between atoms: _272  and  _273
REMARK  123  A    between atoms: _279  and  _281
REMARK  124  A    between atoms: _281  and  _282
REMARK  125  A    between atoms: _281  and  _284
REMARK  126  A    between atoms: _287  and  _289
REMARK  127  A    between atoms: _289  and  _290
REMARK  128  A    between atoms: _289  and  _292
REMARK  129  A    between atoms: _292  and  _293
REMARK  130  A    between atoms: _293  and  _294
REMARK  131  A    between atoms: _296  and  _298
REMARK  132  A    between atoms: _298  and  _299
REMARK  133  A    between atoms: _298  and  _301
REMARK  134  A    between atoms: _301  and  _302
REMARK  135  A    between atoms: _302  and  _303
REMARK  136  A    between atoms: _306  and  _308
REMARK  137  A    between atoms: _308  and  _309
REMARK  138  A    between atoms: _308  and  _311
REMARK  139  A    between atoms: _311  and  _312
REMARK  140  A    between atoms: _317  and  _318
REMARK  141  A    between atoms: _320  and  _322
REMARK  142  A    between atoms: _322  and  _323
REMARK  143  A    between atoms: _326  and  _328
REMARK  144  A    between atoms: _328  and  _329
REMARK  145  A    between atoms: _328  and  _331
REMARK  146  A    between atoms: _331  and  _332
REMARK  147  A    between atoms: _337  and  _339
REMARK  148  A    between atoms: _339  and  _340
REMARK  149  A    between atoms: _342  and  _344
REMARK  150  A    between atoms: _344  and  _345
REMARK  151  A    between atoms: _347  and  _349
REMARK  152  A    between atoms: _349  and  _350
REMARK  153  A    between atoms: _349  and  _352
REMARK  154  A    between atoms: _352  and  _353
REMARK  155  A    between atoms: _353  and  _354
REMARK  156  A    between atoms: _357  and  _359
REMARK  157  A    between atoms: _359  and  _360
REMARK  158  A    between atoms: _359  and  _362
REMARK  159  A    between atoms: _362  and  _363
REMARK  160  A    between atoms: _369  and  _371
REMARK  161  A    between atoms: _371  and  _372
REMARK  162  A    between atoms: _371  and  _374
REMARK  163  A    between atoms: _374  and  _375
REMARK  164  A    between atoms: _381  and  _383
REMARK  165  A    between atoms: _383  and  _384
REMARK  166  A    between atoms: _383  and  _386
REMARK  167  A    between atoms: _386  and  _387
REMARK  168  A    between atoms: _392  and  _393
REMARK  169  A    between atoms: _395  and  _397
REMARK  170  A    between atoms: _397  and  _398
REMARK  171  A    between atoms: _397  and  _400
REMARK  172  A    between atoms: _400  and  _401
REMARK  173  A    between atoms: _404  and  _406
REMARK  174  A    between atoms: _406  and  _407
REMARK  175  A    between atoms: _406  and  _409
REMARK  176  A    between atoms: _409  and  _410
REMARK  177  A    between atoms: _410  and  _411
REMARK  178  A    between atoms: _411  and  _412
REMARK  179  A    between atoms: _412  and  _413
REMARK  180  A    between atoms: _417  and  _419
REMARK  181  A    between atoms: _419  and  _420
REMARK  182  A    between atoms: _419  and  _422
REMARK  183  A    between atoms: _422  and  _423
REMARK  184  A    between atoms: _426  and  _428
REMARK  185  A    between atoms: _428  and  _429
REMARK  186  A    between atoms: _428  and  _431
REMARK  187  A    between atoms: _431  and  _432
REMARK  188  A    between atoms: _432  and  _433
REMARK  189  A    between atoms: _436  and  _438
REMARK  190  A    between atoms: _438  and  _439
REMARK  191  A    between atoms: _438  and  _441
REMARK  192  A    between atoms: _441  and  _442
REMARK  193  A    between atoms: _447  and  _449
REMARK  194  A    between atoms: _449  and  _450
REMARK  195  A    between atoms: _449  and  _452
REMARK  196  A    between atoms: _452  and  _453
REMARK  197  A    between atoms: _456  and  _458
REMARK  198  A    between atoms: _458  and  _459
REMARK  199  A    between atoms: _458  and  _461
REMARK  200  A    between atoms: _461  and  _462
REMARK  201  A    between atoms: _462  and  _463
REMARK  202  A    between atoms: _465  and  _467
REMARK  203  A    between atoms: _467  and  _468
REMARK  204  A    between atoms: _467  and  _470
REMARK  205  A    between atoms: _470  and  _471
REMARK  206  A    between atoms: _474  and  _476
REMARK  207  A    between atoms: _476  and  _477
REMARK  208  A    between atoms: _476  and  _479
REMARK  209  A    between atoms: _479  and  _480
REMARK  210  A    between atoms: _480  and  _481
REMARK  211  A    between atoms: _481  and  _482
REMARK  212  A    between atoms: _482  and  _483
REMARK  213  A    between atoms: _487  and  _489
REMARK  214  A    between atoms: _489  and  _490
REMARK  215  A    between atoms: _489  and  _492
REMARK  216  A    between atoms: _492  and  _493
REMARK  217  A    between atoms: _496  and  _498
REMARK  218  A    between atoms: _498  and  _499
REMARK  219  A    between atoms: _498  and  _501
REMARK  220  A    between atoms: _501  and  _502
REMARK  221  A    between atoms: _505  and  _507
REMARK  222  A    between atoms: _507  and  _508
REMARK  223  A    between atoms: _507  and  _510
REMARK  224  A    between atoms: _510  and  _511
REMARK  225  A    between atoms: _514  and  _516
REMARK  226  A    between atoms: _516  and  _517
REMARK  227  A    between atoms: _516  and  _519
REMARK  228  A    between atoms: _519  and  _520
REMARK  229  A    between atoms: _526  and  _528
REMARK  230  A    between atoms: _528  and  _529
REMARK  231  A    between atoms: _531  and  _533
REMARK  232  A    between atoms: _533  and  _534
REMARK  233  A    between atoms: _533  and  _536
REMARK  234  A    between atoms: _536  and  _537
REMARK  235  A    between atoms: _540  and  _542
REMARK  236  A    between atoms: _542  and  _543
REMARK  237  A    between atoms: _542  and  _545
REMARK  238  A    between atoms: _547  and  _549
REMARK  239  A    between atoms: _549  and  _550
REMARK  240  A    between atoms: _549  and  _552
REMARK  241  A    between atoms: _552  and  _553
REMARK  242  A    between atoms: _559  and  _561
REMARK  243  A    between atoms: _561  and  _562
REMARK  244  A    between atoms: _561  and  _564
REMARK  245  A    between atoms: _564  and  _565
REMARK  246  A    between atoms: _568  and  _570
REMARK  247  A    between atoms: _570  and  _571
REMARK  248  A    between atoms: _570  and  _573
REMARK  249  A    between atoms: _573  and  _574
REMARK  250  A    between atoms: _574  and  _575
REMARK  251  A    between atoms: _578  and  _580
REMARK  252  A    between atoms: _580  and  _581
REMARK  253  A    between atoms: _580  and  _583
REMARK  254  A    between atoms: _583  and  _584
REMARK  255  A    between atoms: _590  and  _592
REMARK  256  A    between atoms: _592  and  _593
REMARK  257  A    between atoms: _592  and  _595
REMARK  258  A    between atoms: _595  and  _596
REMARK                            x       y       z     vdW  Elec       q    Type
REMARK                         _______ _______ _______ _____ _____    ______ ____
ROOT
ATOM      1  O   HOH     1      19.075  -8.752  10.663  0.00  0.00    +0.000 OA
ENDROOT
TORSDOF 0
REMARK  Name = ../refined-set-2016/3d0e/3d0e_pocket.pdb
REMARK  258 active torsions:
REMARK  status: ('A' for Active; 'I' for Inactive)
REMARK    1  A    between atoms: _1  and  _3
REMARK    2  A    between atoms: _3  and  _4
REMARK    3  A    between atoms: _3  and  _6
REMARK    4  A    between atoms: _6  and  _7
REMARK    5  A    between atoms: _10  and  _12
REMARK    6  A    between atoms: _12  and  _13
REMARK    7  A    between atoms: _12  and  _15
REMARK    8  A    between atoms: _15  and  _16
REMARK    9  A    between atoms: _19  and  _21
REMARK   10  A    between atoms: _21  and  _22
REMARK   11  A    between atoms: _24  and  _26
REMARK   12  A    between atoms: _26  and  _27
REMARK   13  A    between atoms: _26  and  _29
REMARK   14  A    between atoms: _29  and  _30
REMARK   15  A    between atoms: _30  and  _31
REMARK   16  A    between atoms: _31  and  _32
REMARK   17  A    between atoms: _32  and  _33
REMARK   18  A    between atoms: _37  and  _39
REMARK   19  A    between atoms: _39  and  _40
REMARK   20  A    between atoms: _42  and  _44
REMARK   21  A    between atoms: _44  and  _45
REMARK   22  A    between atoms: _44  and  _47
REMARK   23  A    between atoms: _47  and  _48
REMARK   24  A    between atoms: _51  and  _53
REMARK   25  A    between atoms: _53  and  _54
REMARK   26  A    between atoms: _53  and  _56
REMARK   27  A    between atoms: _56  and  _57
REMARK   28  A    between atoms: _63  and  _65
REMARK   29  A    between atoms: _65  and  _66
REMARK   30  A    between atoms: _68  and  _70
REMARK   31  A    between atoms: _70  and  _71
REMARK   32  A    between atoms: _70  and  _73
REMARK   33  A    between atoms: _73  and  _74
REMARK   34  A    between atoms: _74  and  _75
REMARK   35  A    between atoms: _75  and  _76
REMARK   36  A    between atoms: _76  and  _77
REMARK   37  A    between atoms: _81  and  _83
REMARK   38  A    between atoms: _83  and  _84
REMARK   39  A    between atoms: _83  and  _86
REMARK   40  A    between atoms: _89  and  _91
REMARK   41  A    between atoms: _91  and  _92
REMARK   42  A    between atoms: _91  and  _94
REMARK   43  A    between atoms: _94  and  _95
REMARK   44  A    between atoms: _98  and  _100
REMARK   45  A    between atoms: _100  and  _101
REMARK   46  A    between atoms: _100  and  _103
REMARK   47  A    between atoms: _103  and  _104
REMARK   48  A    between atoms: _107  and  _109
REMARK   49  A    between atoms: _109  and  _110
REMARK   50  A    between atoms: _109  and  _112
REMARK   51  A    between atoms: _112  and  _113
REMARK   52  A    between atoms: _118  and  _119
REMARK   53  A    between atoms: _121  and  _123
REMARK   54  A    between atoms: _123  and  _124
REMARK   55  A    between atoms: _127  and  _129
REMARK   56  A    between atoms: _129  and  _130
REMARK   57  A    between atoms: _129  and  _132
REMARK   58  A    between atoms: _132  and  _133
REMARK   59  A    between atoms: _133  and  _134
REMARK   60  A    between atoms: _136  and  _138
REMARK   61  A    between atoms: _138  and  _139
REMARK   62  A    between atoms: _138  and  _141
REMARK   63  A    between atoms: _141  and  _142
REMARK   64  A    between atoms: _142  and  _143
REMARK   65  A    between atoms: _143  and  _144
REMARK   66  A    between atoms: _144  and  _145
REMARK   67  A    between atoms: _149  and  _151
REMARK   68  A    between atoms: _151  and  _152
REMARK   69  A    between atoms: _151  and  _154
REMARK   70  A    between atoms: _154  and  _155
REMARK   71  A    between atoms: _158  and  _160
REMARK   72  A    between atoms: _160  and  _161
REMARK   73  A    between atoms: _160  and  _163
REMARK   74  A    between atoms: _163  and  _164
REMARK   75  A    between atoms: _167  and  _169
REMARK   76  A    between atoms: _169  and  _170
REMARK   77  A    between atoms: _169  and  _172
REMARK   78  A    between atoms: _172  and  _173
REMARK   79  A    between atoms: _173  and  _174
REMARK   80  A    between atoms: _177  and  _179
REMARK   81  A    between atoms: _179  and  _180
REMARK   82  A    between atoms: _179  and  _182
REMARK   83  A    between atoms: _182  and  _183
REMARK   84  A    between atoms: _185  and  _187
REMARK   85  A    between atoms: _187  and  _188
REMARK   86  A    between atoms: _187  and  _190
REMARK   87  A    between atoms: _190  and  _191
REMARK   88  A    between atoms: _194  and  _196
REMARK   89  A    between atoms: _196  and  _197
REMARK   90  A    between atoms: _196  and  _199
REMARK   91  A    between atoms: _199  and  _200
REMARK   92  A    between atoms: _203  and  _205
REMARK   93  A    between atoms: _205  and  _206
REMARK   94  A    between atoms: _205  and  _208
REMARK   95  A    between atoms: _208  and  _209
REMARK   96  A    between atoms: _212  and  _214
REMARK   97  A    between atoms: _214  and  _215
REMARK   98  A    between atoms: _218  and  _220
REMARK   99  A    between atoms: _220  and  _221
REMARK  100  A    between atoms: _220  and  _223
REMARK  101  A    between atoms: _223  and  _224
REMARK  102  A    between atoms: _227  and  _229
REMARK  103  A    between atoms: _229  and  _230
REMARK  104  A    between atoms: _229  and  _232
REMARK  105  A    between atoms: _232  and  _233
REMARK  106  A    between atoms: _233  and  _234
REMARK  107  A    between atoms: _234  and  _235
REMARK  108  A    between atoms: _235  and  _236
REMARK  109  A    between atoms: _240  and  _242
REMARK  110  A    between atoms: _242  and  _243
REMARK  111  A    between atoms: _242  and  _245
REMARK  112  A    between atoms: _245  and  _246
REMARK  113  A    between atoms: _251  and  _252
REMARK  114  A    between atoms: _254  and  _256
REMARK  115  A    between atoms: _256  and  _257
REMARK  116  A    between atoms: _260  and  _262
REMARK  117  A    between atoms: _262  and  _263
REMARK  118  A    between atoms: _262  and  _265
REMARK  119  A    between atoms: _267  and  _269
REMARK  120  A    between atoms: _269  and  _270
REMARK  121  A    between atoms: _269  and  _272
REMARK  122  A    between atoms: _272  and  _273
REMARK  123  A    between atoms: _279  and  _281
REMARK  124  A    between atoms: _281  and  _282
REMARK  125  A    between atoms: _281  and  _284
REMARK  126  A    between atoms: _287  and  _289
REMARK  127  A    between atoms: _289  and  _290
REMARK  128  A    between atoms: _289  and  _292
REMARK  129  A    between atoms: _292  and  _293
REMARK  130  A    between atoms: _293  and  _294
REMARK  131  A    between atoms: _296  and  _298
REMARK  132  A    between atoms: _298  and  _299
REMARK  133  A    between atoms: _298  and  _301
REMARK  134  A    between atoms: _301  and  _302
REMARK  135  A    between atoms: _302  and  _303
REMARK  136  A    between atoms: _306  and  _308
REMARK  137  A    between atoms: _308  and  _309
REMARK  138  A    between atoms: _308  and  _311
REMARK  139  A    between atoms: _311  and  _312
REMARK  140  A    between atoms: _317  and  _318
REMARK  141  A    between atoms: _320  and  _322
REMARK  142  A    between atoms: _322  and  _323
REMARK  143  A    between atoms: _326  and  _328
REMARK  144  A    between atoms: _328  and  _329
REMARK  145  A    between atoms: _328  and  _331
REMARK  146  A    between atoms: _331  and  _332
REMARK  147  A    between atoms: _337  and  _339
REMARK  148  A    between atoms: _339  and  _340
REMARK  149  A    between atoms: _342  and  _344
REMARK  150  A    between atoms: _344  and  _345
REMARK  151  A    between atoms: _347  and  _349
REMARK  152  A    between atoms: _349  and  _350
REMARK  153  A    between atoms: _349  and  _352
REMARK  154  A    between atoms: _352  and  _353
REMARK  155  A    between atoms: _353  and  _354
REMARK  156  A    between atoms: _357  and  _359
REMARK  157  A    between atoms: _359  and  _360
REMARK  158  A    between atoms: _359  and  _362
REMARK  159  A    between atoms: _362  and  _363
REMARK  160  A    between atoms: _369  and  _371
REMARK  161  A    between atoms: _371  and  _372
REMARK  162  A    between atoms: _371  and  _374
REMARK  163  A    between atoms: _374  and  _375
REMARK  164  A    between atoms: _381  and  _383
REMARK  165  A    between atoms: _383  and  _384
REMARK  166  A    between atoms: _383  and  _386
REMARK  167  A    between atoms: _386  and  _387
REMARK  168  A    between atoms: _392  and  _393
REMARK  169  A    between atoms: _395  and  _397
REMARK  170  A    between atoms: _397  and  _398
REMARK  171  A    between atoms: _397  and  _400
REMARK  172  A    between atoms: _400  and  _401
REMARK  173  A    between atoms: _404  and  _406
REMARK  174  A    between atoms: _406  and  _407
REMARK  175  A    between atoms: _406  and  _409
REMARK  176  A    between atoms: _409  and  _410
REMARK  177  A    between atoms: _410  and  _411
REMARK  178  A    between atoms: _411  and  _412
REMARK  179  A    between atoms: _412  and  _413
REMARK  180  A    between atoms: _417  and  _419
REMARK  181  A    between atoms: _419  and  _420
REMARK  182  A    between atoms: _419  and  _422
REMARK  183  A    between atoms: _422  and  _423
REMARK  184  A    between atoms: _426  and  _428
REMARK  185  A    between atoms: _428  and  _429
REMARK  186  A    between atoms: _428  and  _431
REMARK  187  A    between atoms: _431  and  _432
REMARK  188  A    between atoms: _432  and  _433
REMARK  189  A    between atoms: _436  and  _438
REMARK  190  A    between atoms: _438  and  _439
REMARK  191  A    between atoms: _438  and  _441
REMARK  192  A    between atoms: _441  and  _442
REMARK  193  A    between atoms: _447  and  _449
REMARK  194  A    between atoms: _449  and  _450
REMARK  195  A    between atoms: _449  and  _452
REMARK  196  A    between atoms: _452  and  _453
REMARK  197  A    between atoms: _456  and  _458
REMARK  198  A    between atoms: _458  and  _459
REMARK  199  A    between atoms: _458  and  _461
REMARK  200  A    between atoms: _461  and  _462
REMARK  201  A    between atoms: _462  and  _463
REMARK  202  A    between atoms: _465  and  _467
REMARK  203  A    between atoms: _467  and  _468
REMARK  204  A    between atoms: _467  and  _470
REMARK  205  A    between atoms: _470  and  _471
REMARK  206  A    between atoms: _474  and  _476
REMARK  207  A    between atoms: _476  and  _477
REMARK  208  A    between atoms: _476  and  _479
REMARK  209  A    between atoms: _479  and  _480
REMARK  210  A    between atoms: _480  and  _481
REMARK  211  A    between atoms: _481  and  _482
REMARK  212  A    between atoms: _482  and  _483
REMARK  213  A    between atoms: _487  and  _489
REMARK  214  A    between atoms: _489  and  _490
REMARK  215  A    between atoms: _489  and  _492
REMARK  216  A    between atoms: _492  and  _493
REMARK  217  A    between atoms: _496  and  _498
REMARK  218  A    between atoms: _498  and  _499
REMARK  219  A    between atoms: _498  and  _501
REMARK  220  A    between atoms: _501  and  _502
REMARK  221  A    between atoms: _505  and  _507
REMARK  222  A    between atoms: _507  and  _508
REMARK  223  A    between atoms: _507  and  _510
REMARK  224  A    between atoms: _510  and  _511
REMARK  225  A    between atoms: _514  and  _516
REMARK  226  A    between atoms: _516  and  _517
REMARK  227  A    between atoms: _516  and  _519
REMARK  228  A    between atoms: _519  and  _520
REMARK  229  A    between atoms: _526  and  _528
REMARK  230  A    between atoms: _528  and  _529
REMARK  231  A    between atoms: _531  and  _533
REMARK  232  A    between atoms: _533  and  _534
REMARK  233  A    between atoms: _533  and  _536
REMARK  234  A    between atoms: _536  and  _537
REMARK  235  A    between atoms: _540  and  _542
REMARK  236  A    between atoms: _542  and  _543
REMARK  237  A    between atoms: _542  and  _545
REMARK  238  A    between atoms: _547  and  _549
REMARK  239  A    between atoms: _549  and  _550
REMARK  240  A    between atoms: _549  and  _552
REMARK  241  A    between atoms: _552  and  _553
REMARK  242  A    between atoms: _559  and  _561
REMARK  243  A    between atoms: _561  and  _562
REMARK  244  A    between atoms: _561  and  _564
REMARK  245  A    between atoms: _564  and  _565
REMARK  246  A    between atoms: _568  and  _570
REMARK  247  A    between atoms: _570  and  _571
REMARK  248  A    between atoms: _570  and  _573
REMARK  249  A    between atoms: _573  and  _574
REMARK  250  A    between atoms: _574  and  _575
REMARK  251  A    between atoms: _578  and  _580
REMARK  252  A    between atoms: _580  and  _581
REMARK  253  A    between atoms: _580  and  _583
REMARK  254  A    between atoms: _583  and  _584
REMARK  255  A    between atoms: _590  and  _592
REMARK  256  A    between atoms: _592  and  _593
REMARK  257  A    between atoms: _592  and  _595
REMARK  258  A    between atoms: _595  and  _596
REMARK                            x       y       z     vdW  Elec       q    Type
REMARK                         _______ _______ _______ _____ _____    ______ ____
ROOT
ATOM      1  O   HOH     1      23.325 -19.220  -4.975  0.00  0.00    +0.000 OA
ENDROOT
TORSDOF 0
REMARK  Name = ../refined-set-2016/3d0e/3d0e_pocket.pdb
REMARK  258 active torsions:
REMARK  status: ('A' for Active; 'I' for Inactive)
REMARK    1  A    between atoms: _1  and  _3
REMARK    2  A    between atoms: _3  and  _4
REMARK    3  A    between atoms: _3  and  _6
REMARK    4  A    between atoms: _6  and  _7
REMARK    5  A    between atoms: _10  and  _12
REMARK    6  A    between atoms: _12  and  _13
REMARK    7  A    between atoms: _12  and  _15
REMARK    8  A    between atoms: _15  and  _16
REMARK    9  A    between atoms: _19  and  _21
REMARK   10  A    between atoms: _21  and  _22
REMARK   11  A    between atoms: _24  and  _26
REMARK   12  A    between atoms: _26  and  _27
REMARK   13  A    between atoms: _26  and  _29
REMARK   14  A    between atoms: _29  and  _30
REMARK   15  A    between atoms: _30  and  _31
REMARK   16  A    between atoms: _31  and  _32
REMARK   17  A    between atoms: _32  and  _33
REMARK   18  A    between atoms: _37  and  _39
REMARK   19  A    between atoms: _39  and  _40
REMARK   20  A    between atoms: _42  and  _44
REMARK   21  A    between atoms: _44  and  _45
REMARK   22  A    between atoms: _44  and  _47
REMARK   23  A    between atoms: _47  and  _48
REMARK   24  A    between atoms: _51  and  _53
REMARK   25  A    between atoms: _53  and  _54
REMARK   26  A    between atoms: _53  and  _56
REMARK   27  A    between atoms: _56  and  _57
REMARK   28  A    between atoms: _63  and  _65
REMARK   29  A    between atoms: _65  and  _66
REMARK   30  A    between atoms: _68  and  _70
REMARK   31  A    between atoms: _70  and  _71
REMARK   32  A    between atoms: _70  and  _73
REMARK   33  A    between atoms: _73  and  _74
REMARK   34  A    between atoms: _74  and  _75
REMARK   35  A    between atoms: _75  and  _76
REMARK   36  A    between atoms: _76  and  _77
REMARK   37  A    between atoms: _81  and  _83
REMARK   38  A    between atoms: _83  and  _84
REMARK   39  A    between atoms: _83  and  _86
REMARK   40  A    between atoms: _89  and  _91
REMARK   41  A    between atoms: _91  and  _92
REMARK   42  A    between atoms: _91  and  _94
REMARK   43  A    between atoms: _94  and  _95
REMARK   44  A    between atoms: _98  and  _100
REMARK   45  A    between atoms: _100  and  _101
REMARK   46  A    between atoms: _100  and  _103
REMARK   47  A    between atoms: _103  and  _104
REMARK   48  A    between atoms: _107  and  _109
REMARK   49  A    between atoms: _109  and  _110
REMARK   50  A    between atoms: _109  and  _112
REMARK   51  A    between atoms: _112  and  _113
REMARK   52  A    between atoms: _118  and  _119
REMARK   53  A    between atoms: _121  and  _123
REMARK   54  A    between atoms: _123  and  _124
REMARK   55  A    between atoms: _127  and  _129
REMARK   56  A    between atoms: _129  and  _130
REMARK   57  A    between atoms: _129  and  _132
REMARK   58  A    between atoms: _132  and  _133
REMARK   59  A    between atoms: _133  and  _134
REMARK   60  A    between atoms: _136  and  _138
REMARK   61  A    between atoms: _138  and  _139
REMARK   62  A    between atoms: _138  and  _141
REMARK   63  A    between atoms: _141  and  _142
REMARK   64  A    between atoms: _142  and  _143
REMARK   65  A    between atoms: _143  and  _144
REMARK   66  A    between atoms: _144  and  _145
REMARK   67  A    between atoms: _149  and  _151
REMARK   68  A    between atoms: _151  and  _152
REMARK   69  A    between atoms: _151  and  _154
REMARK   70  A    between atoms: _154  and  _155
REMARK   71  A    between atoms: _158  and  _160
REMARK   72  A    between atoms: _160  and  _161
REMARK   73  A    between atoms: _160  and  _163
REMARK   74  A    between atoms: _163  and  _164
REMARK   75  A    between atoms: _167  and  _169
REMARK   76  A    between atoms: _169  and  _170
REMARK   77  A    between atoms: _169  and  _172
REMARK   78  A    between atoms: _172  and  _173
REMARK   79  A    between atoms: _173  and  _174
REMARK   80  A    between atoms: _177  and  _179
REMARK   81  A    between atoms: _179  and  _180
REMARK   82  A    between atoms: _179  and  _182
REMARK   83  A    between atoms: _182  and  _183
REMARK   84  A    between atoms: _185  and  _187
REMARK   85  A    between atoms: _187  and  _188
REMARK   86  A    between atoms: _187  and  _190
REMARK   87  A    between atoms: _190  and  _191
REMARK   88  A    between atoms: _194  and  _196
REMARK   89  A    between atoms: _196  and  _197
REMARK   90  A    between atoms: _196  and  _199
REMARK   91  A    between atoms: _199  and  _200
REMARK   92  A    between atoms: _203  and  _205
REMARK   93  A    between atoms: _205  and  _206
REMARK   94  A    between atoms: _205  and  _208
REMARK   95  A    between atoms: _208  and  _209
REMARK   96  A    between atoms: _212  and  _214
REMARK   97  A    between atoms: _214  and  _215
REMARK   98  A    between atoms: _218  and  _220
REMARK   99  A    between atoms: _220  and  _221
REMARK  100  A    between atoms: _220  and  _223
REMARK  101  A    between atoms: _223  and  _224
REMARK  102  A    between atoms: _227  and  _229
REMARK  103  A    between atoms: _229  and  _230
REMARK  104  A    between atoms: _229  and  _232
REMARK  105  A    between atoms: _232  and  _233
REMARK  106  A    between atoms: _233  and  _234
REMARK  107  A    between atoms: _234  and  _235
REMARK  108  A    between atoms: _235  and  _236
REMARK  109  A    between atoms: _240  and  _242
REMARK  110  A    between atoms: _242  and  _243
REMARK  111  A    between atoms: _242  and  _245
REMARK  112  A    between atoms: _245  and  _246
REMARK  113  A    between atoms: _251  and  _252
REMARK  114  A    between atoms: _254  and  _256
REMARK  115  A    between atoms: _256  and  _257
REMARK  116  A    between atoms: _260  and  _262
REMARK  117  A    between atoms: _262  and  _263
REMARK  118  A    between atoms: _262  and  _265
REMARK  119  A    between atoms: _267  and  _269
REMARK  120  A    between atoms: _269  and  _270
REMARK  121  A    between atoms: _269  and  _272
REMARK  122  A    between atoms: _272  and  _273
REMARK  123  A    between atoms: _279  and  _281
REMARK  124  A    between atoms: _281  and  _282
REMARK  125  A    between atoms: _281  and  _284
REMARK  126  A    between atoms: _287  and  _289
REMARK  127  A    between atoms: _289  and  _290
REMARK  128  A    between atoms: _289  and  _292
REMARK  129  A    between atoms: _292  and  _293
REMARK  130  A    between atoms: _293  and  _294
REMARK  131  A    between atoms: _296  and  _298
REMARK  132  A    between atoms: _298  and  _299
REMARK  133  A    between atoms: _298  and  _301
REMARK  134  A    between atoms: _301  and  _302
REMARK  135  A    between atoms: _302  and  _303
REMARK  136  A    between atoms: _306  and  _308
REMARK  137  A    between atoms: _308  and  _309
REMARK  138  A    between atoms: _308  and  _311
REMARK  139  A    between atoms: _311  and  _312
REMARK  140  A    between atoms: _317  and  _318
REMARK  141  A    between atoms: _320  and  _322
REMARK  142  A    between atoms: _322  and  _323
REMARK  143  A    between atoms: _326  and  _328
REMARK  144  A    between atoms: _328  and  _329
REMARK  145  A    between atoms: _328  and  _331
REMARK  146  A    between atoms: _331  and  _332
REMARK  147  A    between atoms: _337  and  _339
REMARK  148  A    between atoms: _339  and  _340
REMARK  149  A    between atoms: _342  and  _344
REMARK  150  A    between atoms: _344  and  _345
REMARK  151  A    between atoms: _347  and  _349
REMARK  152  A    between atoms: _349  and  _350
REMARK  153  A    between atoms: _349  and  _352
REMARK  154  A    between atoms: _352  and  _353
REMARK  155  A    between atoms: _353  and  _354
REMARK  156  A    between atoms: _357  and  _359
REMARK  157  A    between atoms: _359  and  _360
REMARK  158  A    between atoms: _359  and  _362
REMARK  159  A    between atoms: _362  and  _363
REMARK  160  A    between atoms: _369  and  _371
REMARK  161  A    between atoms: _371  and  _372
REMARK  162  A    between atoms: _371  and  _374
REMARK  163  A    between atoms: _374  and  _375
REMARK  164  A    between atoms: _381  and  _383
REMARK  165  A    between atoms: _383  and  _384
REMARK  166  A    between atoms: _383  and  _386
REMARK  167  A    between atoms: _386  and  _387
REMARK  168  A    between atoms: _392  and  _393
REMARK  169  A    between atoms: _395  and  _397
REMARK  170  A    between atoms: _397  and  _398
REMARK  171  A    between atoms: _397  and  _400
REMARK  172  A    between atoms: _400  and  _401
REMARK  173  A    between atoms: _404  and  _406
REMARK  174  A    between atoms: _406  and  _407
REMARK  175  A    between atoms: _406  and  _409
REMARK  176  A    between atoms: _409  and  _410
REMARK  177  A    between atoms: _410  and  _411
REMARK  178  A    between atoms: _411  and  _412
REMARK  179  A    between atoms: _412  and  _413
REMARK  180  A    between atoms: _417  and  _419
REMARK  181  A    between atoms: _419  and  _420
REMARK  182  A    between atoms: _419  and  _422
REMARK  183  A    between atoms: _422  and  _423
REMARK  184  A    between atoms: _426  and  _428
REMARK  185  A    between atoms: _428  and  _429
REMARK  186  A    between atoms: _428  and  _431
REMARK  187  A    between atoms: _431  and  _432
REMARK  188  A    between atoms: _432  and  _433
REMARK  189  A    between atoms: _436  and  _438
REMARK  190  A    between atoms: _438  and  _439
REMARK  191  A    between atoms: _438  and  _441
REMARK  192  A    between atoms: _441  and  _442
REMARK  193  A    between atoms: _447  and  _449
REMARK  194  A    between atoms: _449  and  _450
REMARK  195  A    between atoms: _449  and  _452
REMARK  196  A    between atoms: _452  and  _453
REMARK  197  A    between atoms: _456  and  _458
REMARK  198  A    between atoms: _458  and  _459
REMARK  199  A    between atoms: _458  and  _461
REMARK  200  A    between atoms: _461  and  _462
REMARK  201  A    between atoms: _462  and  _463
REMARK  202  A    between atoms: _465  and  _467
REMARK  203  A    between atoms: _467  and  _468
REMARK  204  A    between atoms: _467  and  _470
REMARK  205  A    between atoms: _470  and  _471
REMARK  206  A    between atoms: _474  and  _476
REMARK  207  A    between atoms: _476  and  _477
REMARK  208  A    between atoms: _476  and  _479
REMARK  209  A    between atoms: _479  and  _480
REMARK  210  A    between atoms: _480  and  _481
REMARK  211  A    between atoms: _481  and  _482
REMARK  212  A    between atoms: _482  and  _483
REMARK  213  A    between atoms: _487  and  _489
REMARK  214  A    between atoms: _489  and  _490
REMARK  215  A    between atoms: _489  and  _492
REMARK  216  A    between atoms: _492  and  _493
REMARK  217  A    between atoms: _496  and  _498
REMARK  218  A    between atoms: _498  and  _499
REMARK  219  A    between atoms: _498  and  _501
REMARK  220  A    between atoms: _501  and  _502
REMARK  221  A    between atoms: _505  and  _507
REMARK  222  A    between atoms: _507  and  _508
REMARK  223  A    between atoms: _507  and  _510
REMARK  224  A    between atoms: _510  and  _511
REMARK  225  A    between atoms: _514  and  _516
REMARK  226  A    between atoms: _516  and  _517
REMARK  227  A    between atoms: _516  and  _519
REMARK  228  A    between atoms: _519  and  _520
REMARK  229  A    between atoms: _526  and  _528
REMARK  230  A    between atoms: _528  and  _529
REMARK  231  A    between atoms: _531  and  _533
REMARK  232  A    between atoms: _533  and  _534
REMARK  233  A    between atoms: _533  and  _536
REMARK  234  A    between atoms: _536  and  _537
REMARK  235  A    between atoms: _540  and  _542
REMARK  236  A    between atoms: _542  and  _543
REMARK  237  A    between atoms: _542  and  _545
REMARK  238  A    between atoms: _547  and  _549
REMARK  239  A    between atoms: _549  and  _550
REMARK  240  A    between atoms: _549  and  _552
REMARK  241  A    between atoms: _552  and  _553
REMARK  242  A    between atoms: _559  and  _561
REMARK  243  A    between atoms: _561  and  _562
REMARK  244  A    between atoms: _561  and  _564
REMARK  245  A    between atoms: _564  and  _565
REMARK  246  A    between atoms: _568  and  _570
REMARK  247  A    between atoms: _570  and  _571
REMARK  248  A    between atoms: _570  and  _573
REMARK  249  A    between atoms: _573  and  _574
REMARK  250  A    between atoms: _574  and  _575
REMARK  251  A    between atoms: _578  and  _580
REMARK  252  A    between atoms: _580  and  _581
REMARK  253  A    between atoms: _580  and  _583
REMARK  254  A    between atoms: _583  and  _584
REMARK  255  A    between atoms: _590  and  _592
REMARK  256  A    between atoms: _592  and  _593
REMARK  257  A    between atoms: _592  and  _595
REMARK  258  A    between atoms: _595  and  _596
REMARK                            x       y       z     vdW  Elec       q    Type
REMARK                         _______ _______ _______ _____ _____    ______ ____
ROOT
ATOM      1  O   HOH     1      12.926 -25.419   8.024  0.00  0.00    +0.000 OA
ENDROOT
TORSDOF 0
REMARK  Name = ../refined-set-2016/3d0e/3d0e_pocket.pdb
REMARK  258 active torsions:
REMARK  status: ('A' for Active; 'I' for Inactive)
REMARK    1  A    between atoms: _1  and  _3
REMARK    2  A    between atoms: _3  and  _4
REMARK    3  A    between atoms: _3  and  _6
REMARK    4  A    between atoms: _6  and  _7
REMARK    5  A    between atoms: _10  and  _12
REMARK    6  A    between atoms: _12  and  _13
REMARK    7  A    between atoms: _12  and  _15
REMARK    8  A    between atoms: _15  and  _16
REMARK    9  A    between atoms: _19  and  _21
REMARK   10  A    between atoms: _21  and  _22
REMARK   11  A    between atoms: _24  and  _26
REMARK   12  A    between atoms: _26  and  _27
REMARK   13  A    between atoms: _26  and  _29
REMARK   14  A    between atoms: _29  and  _30
REMARK   15  A    between atoms: _30  and  _31
REMARK   16  A    between atoms: _31  and  _32
REMARK   17  A    between atoms: _32  and  _33
REMARK   18  A    between atoms: _37  and  _39
REMARK   19  A    between atoms: _39  and  _40
REMARK   20  A    between atoms: _42  and  _44
REMARK   21  A    between atoms: _44  and  _45
REMARK   22  A    between atoms: _44  and  _47
REMARK   23  A    between atoms: _47  and  _48
REMARK   24  A    between atoms: _51  and  _53
REMARK   25  A    between atoms: _53  and  _54
REMARK   26  A    between atoms: _53  and  _56
REMARK   27  A    between atoms: _56  and  _57
REMARK   28  A    between atoms: _63  and  _65
REMARK   29  A    between atoms: _65  and  _66
REMARK   30  A    between atoms: _68  and  _70
REMARK   31  A    between atoms: _70  and  _71
REMARK   32  A    between atoms: _70  and  _73
REMARK   33  A    between atoms: _73  and  _74
REMARK   34  A    between atoms: _74  and  _75
REMARK   35  A    between atoms: _75  and  _76
REMARK   36  A    between atoms: _76  and  _77
REMARK   37  A    between atoms: _81  and  _83
REMARK   38  A    between atoms: _83  and  _84
REMARK   39  A    between atoms: _83  and  _86
REMARK   40  A    between atoms: _89  and  _91
REMARK   41  A    between atoms: _91  and  _92
REMARK   42  A    between atoms: _91  and  _94
REMARK   43  A    between atoms: _94  and  _95
REMARK   44  A    between atoms: _98  and  _100
REMARK   45  A    between atoms: _100  and  _101
REMARK   46  A    between atoms: _100  and  _103
REMARK   47  A    between atoms: _103  and  _104
REMARK   48  A    between atoms: _107  and  _109
REMARK   49  A    between atoms: _109  and  _110
REMARK   50  A    between atoms: _109  and  _112
REMARK   51  A    between atoms: _112  and  _113
REMARK   52  A    between atoms: _118  and  _119
REMARK   53  A    between atoms: _121  and  _123
REMARK   54  A    between atoms: _123  and  _124
REMARK   55  A    between atoms: _127  and  _129
REMARK   56  A    between atoms: _129  and  _130
REMARK   57  A    between atoms: _129  and  _132
REMARK   58  A    between atoms: _132  and  _133
REMARK   59  A    between atoms: _133  and  _134
REMARK   60  A    between atoms: _136  and  _138
REMARK   61  A    between atoms: _138  and  _139
REMARK   62  A    between atoms: _138  and  _141
REMARK   63  A    between atoms: _141  and  _142
REMARK   64  A    between atoms: _142  and  _143
REMARK   65  A    between atoms: _143  and  _144
REMARK   66  A    between atoms: _144  and  _145
REMARK   67  A    between atoms: _149  and  _151
REMARK   68  A    between atoms: _151  and  _152
REMARK   69  A    between atoms: _151  and  _154
REMARK   70  A    between atoms: _154  and  _155
REMARK   71  A    between atoms: _158  and  _160
REMARK   72  A    between atoms: _160  and  _161
REMARK   73  A    between atoms: _160  and  _163
REMARK   74  A    between atoms: _163  and  _164
REMARK   75  A    between atoms: _167  and  _169
REMARK   76  A    between atoms: _169  and  _170
REMARK   77  A    between atoms: _169  and  _172
REMARK   78  A    between atoms: _172  and  _173
REMARK   79  A    between atoms: _173  and  _174
REMARK   80  A    between atoms: _177  and  _179
REMARK   81  A    between atoms: _179  and  _180
REMARK   82  A    between atoms: _179  and  _182
REMARK   83  A    between atoms: _182  and  _183
REMARK   84  A    between atoms: _185  and  _187
REMARK   85  A    between atoms: _187  and  _188
REMARK   86  A    between atoms: _187  and  _190
REMARK   87  A    between atoms: _190  and  _191
REMARK   88  A    between atoms: _194  and  _196
REMARK   89  A    between atoms: _196  and  _197
REMARK   90  A    between atoms: _196  and  _199
REMARK   91  A    between atoms: _199  and  _200
REMARK   92  A    between atoms: _203  and  _205
REMARK   93  A    between atoms: _205  and  _206
REMARK   94  A    between atoms: _205  and  _208
REMARK   95  A    between atoms: _208  and  _209
REMARK   96  A    between atoms: _212  and  _214
REMARK   97  A    between atoms: _214  and  _215
REMARK   98  A    between atoms: _218  and  _220
REMARK   99  A    between atoms: _220  and  _221
REMARK  100  A    between atoms: _220  and  _223
REMARK  101  A    between atoms: _223  and  _224
REMARK  102  A    between atoms: _227  and  _229
REMARK  103  A    between atoms: _229  and  _230
REMARK  104  A    between atoms: _229  and  _232
REMARK  105  A    between atoms: _232  and  _233
REMARK  106  A    between atoms: _233  and  _234
REMARK  107  A    between atoms: _234  and  _235
REMARK  108  A    between atoms: _235  and  _236
REMARK  109  A    between atoms: _240  and  _242
REMARK  110  A    between atoms: _242  and  _243
REMARK  111  A    between atoms: _242  and  _245
REMARK  112  A    between atoms: _245  and  _246
REMARK  113  A    between atoms: _251  and  _252
REMARK  114  A    between atoms: _254  and  _256
REMARK  115  A    between atoms: _256  and  _257
REMARK  116  A    between atoms: _260  and  _262
REMARK  117  A    between atoms: _262  and  _263
REMARK  118  A    between atoms: _262  and  _265
REMARK  119  A    between atoms: _267  and  _269
REMARK  120  A    between atoms: _269  and  _270
REMARK  121  A    between atoms: _269  and  _272
REMARK  122  A    between atoms: _272  and  _273
REMARK  123  A    between atoms: _279  and  _281
REMARK  124  A    between atoms: _281  and  _282
REMARK  125  A    between atoms: _281  and  _284
REMARK  126  A    between atoms: _287  and  _289
REMARK  127  A    between atoms: _289  and  _290
REMARK  128  A    between atoms: _289  and  _292
REMARK  129  A    between atoms: _292  and  _293
REMARK  130  A    between atoms: _293  and  _294
REMARK  131  A    between atoms: _296  and  _298
REMARK  132  A    between atoms: _298  and  _299
REMARK  133  A    between atoms: _298  and  _301
REMARK  134  A    between atoms: _301  and  _302
REMARK  135  A    between atoms: _302  and  _303
REMARK  136  A    between atoms: _306  and  _308
REMARK  137  A    between atoms: _308  and  _309
REMARK  138  A    between atoms: _308  and  _311
REMARK  139  A    between atoms: _311  and  _312
REMARK  140  A    between atoms: _317  and  _318
REMARK  141  A    between atoms: _320  and  _322
REMARK  142  A    between atoms: _322  and  _323
REMARK  143  A    between atoms: _326  and  _328
REMARK  144  A    between atoms: _328  and  _329
REMARK  145  A    between atoms: _328  and  _331
REMARK  146  A    between atoms: _331  and  _332
REMARK  147  A    between atoms: _337  and  _339
REMARK  148  A    between atoms: _339  and  _340
REMARK  149  A    between atoms: _342  and  _344
REMARK  150  A    between atoms: _344  and  _345
REMARK  151  A    between atoms: _347  and  _349
REMARK  152  A    between atoms: _349  and  _350
REMARK  153  A    between atoms: _349  and  _352
REMARK  154  A    between atoms: _352  and  _353
REMARK  155  A    between atoms: _353  and  _354
REMARK  156  A    between atoms: _357  and  _359
REMARK  157  A    between atoms: _359  and  _360
REMARK  158  A    between atoms: _359  and  _362
REMARK  159  A    between atoms: _362  and  _363
REMARK  160  A    between atoms: _369  and  _371
REMARK  161  A    between atoms: _371  and  _372
REMARK  162  A    between atoms: _371  and  _374
REMARK  163  A    between atoms: _374  and  _375
REMARK  164  A    between atoms: _381  and  _383
REMARK  165  A    between atoms: _383  and  _384
REMARK  166  A    between atoms: _383  and  _386
REMARK  167  A    between atoms: _386  and  _387
REMARK  168  A    between atoms: _392  and  _393
REMARK  169  A    between atoms: _395  and  _397
REMARK  170  A    between atoms: _397  and  _398
REMARK  171  A    between atoms: _397  and  _400
REMARK  172  A    between atoms: _400  and  _401
REMARK  173  A    between atoms: _404  and  _406
REMARK  174  A    between atoms: _406  and  _407
REMARK  175  A    between atoms: _406  and  _409
REMARK  176  A    between atoms: _409  and  _410
REMARK  177  A    between atoms: _410  and  _411
REMARK  178  A    between atoms: _411  and  _412
REMARK  179  A    between atoms: _412  and  _413
REMARK  180  A    between atoms: _417  and  _419
REMARK  181  A    between atoms: _419  and  _420
REMARK  182  A    between atoms: _419  and  _422
REMARK  183  A    between atoms: _422  and  _423
REMARK  184  A    between atoms: _426  and  _428
REMARK  185  A    between atoms: _428  and  _429
REMARK  186  A    between atoms: _428  and  _431
REMARK  187  A    between atoms: _431  and  _432
REMARK  188  A    between atoms: _432  and  _433
REMARK  189  A    between atoms: _436  and  _438
REMARK  190  A    between atoms: _438  and  _439
REMARK  191  A    between atoms: _438  and  _441
REMARK  192  A    between atoms: _441  and  _442
REMARK  193  A    between atoms: _447  and  _449
REMARK  194  A    between atoms: _449  and  _450
REMARK  195  A    between atoms: _449  and  _452
REMARK  196  A    between atoms: _452  and  _453
REMARK  197  A    between atoms: _456  and  _458
REMARK  198  A    between atoms: _458  and  _459
REMARK  199  A    between atoms: _458  and  _461
REMARK  200  A    between atoms: _461  and  _462
REMARK  201  A    between atoms: _462  and  _463
REMARK  202  A    between atoms: _465  and  _467
REMARK  203  A    between atoms: _467  and  _468
REMARK  204  A    between atoms: _467  and  _470
REMARK  205  A    between atoms: _470  and  _471
REMARK  206  A    between atoms: _474  and  _476
REMARK  207  A    between atoms: _476  and  _477
REMARK  208  A    between atoms: _476  and  _479
REMARK  209  A    between atoms: _479  and  _480
REMARK  210  A    between atoms: _480  and  _481
REMARK  211  A    between atoms: _481  and  _482
REMARK  212  A    between atoms: _482  and  _483
REMARK  213  A    between atoms: _487  and  _489
REMARK  214  A    between atoms: _489  and  _490
REMARK  215  A    between atoms: _489  and  _492
REMARK  216  A    between atoms: _492  and  _493
REMARK  217  A    between atoms: _496  and  _498
REMARK  218  A    between atoms: _498  and  _499
REMARK  219  A    between atoms: _498  and  _501
REMARK  220  A    between atoms: _501  and  _502
REMARK  221  A    between atoms: _505  and  _507
REMARK  222  A    between atoms: _507  and  _508
REMARK  223  A    between atoms: _507  and  _510
REMARK  224  A    between atoms: _510  and  _511
REMARK  225  A    between atoms: _514  and  _516
REMARK  226  A    between atoms: _516  and  _517
REMARK  227  A    between atoms: _516  and  _519
REMARK  228  A    between atoms: _519  and  _520
REMARK  229  A    between atoms: _526  and  _528
REMARK  230  A    between atoms: _528  and  _529
REMARK  231  A    between atoms: _531  and  _533
REMARK  232  A    between atoms: _533  and  _534
REMARK  233  A    between atoms: _533  and  _536
REMARK  234  A    between atoms: _536  and  _537
REMARK  235  A    between atoms: _540  and  _542
REMARK  236  A    between atoms: _542  and  _543
REMARK  237  A    between atoms: _542  and  _545
REMARK  238  A    between atoms: _547  and  _549
REMARK  239  A    between atoms: _549  and  _550
REMARK  240  A    between atoms: _549  and  _552
REMARK  241  A    between atoms: _552  and  _553
REMARK  242  A    between atoms: _559  and  _561
REMARK  243  A    between atoms: _561  and  _562
REMARK  244  A    between atoms: _561  and  _564
REMARK  245  A    between atoms: _564  and  _565
REMARK  246  A    between atoms: _568  and  _570
REMARK  247  A    between atoms: _570  and  _571
REMARK  248  A    between atoms: _570  and  _573
REMARK  249  A    between atoms: _573  and  _574
REMARK  250  A    between atoms: _574  and  _575
REMARK  251  A    between atoms: _578  and  _580
REMARK  252  A    between atoms: _580  and  _581
REMARK  253  A    between atoms: _580  and  _583
REMARK  254  A    between atoms: _583  and  _584
REMARK  255  A    between atoms: _590  and  _592
REMARK  256  A    between atoms: _592  and  _593
REMARK  257  A    between atoms: _592  and  _595
REMARK  258  A    between atoms: _595  and  _596
REMARK                            x       y       z     vdW  Elec       q    Type
REMARK                         _______ _______ _______ _____ _____    ______ ____
ROOT
ATOM      1  O   HOH     1      20.239 -10.901   8.992  0.00  0.00    +0.000 OA
ENDROOT
TORSDOF 0
REMARK  Name = ../refined-set-2016/3d0e/3d0e_pocket.pdb
REMARK  258 active torsions:
REMARK  status: ('A' for Active; 'I' for Inactive)
REMARK    1  A    between atoms: _1  and  _3
REMARK    2  A    between atoms: _3  and  _4
REMARK    3  A    between atoms: _3  and  _6
REMARK    4  A    between atoms: _6  and  _7
REMARK    5  A    between atoms: _10  and  _12
REMARK    6  A    between atoms: _12  and  _13
REMARK    7  A    between atoms: _12  and  _15
REMARK    8  A    between atoms: _15  and  _16
REMARK    9  A    between atoms: _19  and  _21
REMARK   10  A    between atoms: _21  and  _22
REMARK   11  A    between atoms: _24  and  _26
REMARK   12  A    between atoms: _26  and  _27
REMARK   13  A    between atoms: _26  and  _29
REMARK   14  A    between atoms: _29  and  _30
REMARK   15  A    between atoms: _30  and  _31
REMARK   16  A    between atoms: _31  and  _32
REMARK   17  A    between atoms: _32  and  _33
REMARK   18  A    between atoms: _37  and  _39
REMARK   19  A    between atoms: _39  and  _40
REMARK   20  A    between atoms: _42  and  _44
REMARK   21  A    between atoms: _44  and  _45
REMARK   22  A    between atoms: _44  and  _47
REMARK   23  A    between atoms: _47  and  _48
REMARK   24  A    between atoms: _51  and  _53
REMARK   25  A    between atoms: _53  and  _54
REMARK   26  A    between atoms: _53  and  _56
REMARK   27  A    between atoms: _56  and  _57
REMARK   28  A    between atoms: _63  and  _65
REMARK   29  A    between atoms: _65  and  _66
REMARK   30  A    between atoms: _68  and  _70
REMARK   31  A    between atoms: _70  and  _71
REMARK   32  A    between atoms: _70  and  _73
REMARK   33  A    between atoms: _73  and  _74
REMARK   34  A    between atoms: _74  and  _75
REMARK   35  A    between atoms: _75  and  _76
REMARK   36  A    between atoms: _76  and  _77
REMARK   37  A    between atoms: _81  and  _83
REMARK   38  A    between atoms: _83  and  _84
REMARK   39  A    between atoms: _83  and  _86
REMARK   40  A    between atoms: _89  and  _91
REMARK   41  A    between atoms: _91  and  _92
REMARK   42  A    between atoms: _91  and  _94
REMARK   43  A    between atoms: _94  and  _95
REMARK   44  A    between atoms: _98  and  _100
REMARK   45  A    between atoms: _100  and  _101
REMARK   46  A    between atoms: _100  and  _103
REMARK   47  A    between atoms: _103  and  _104
REMARK   48  A    between atoms: _107  and  _109
REMARK   49  A    between atoms: _109  and  _110
REMARK   50  A    between atoms: _109  and  _112
REMARK   51  A    between atoms: _112  and  _113
REMARK   52  A    between atoms: _118  and  _119
REMARK   53  A    between atoms: _121  and  _123
REMARK   54  A    between atoms: _123  and  _124
REMARK   55  A    between atoms: _127  and  _129
REMARK   56  A    between atoms: _129  and  _130
REMARK   57  A    between atoms: _129  and  _132
REMARK   58  A    between atoms: _132  and  _133
REMARK   59  A    between atoms: _133  and  _134
REMARK   60  A    between atoms: _136  and  _138
REMARK   61  A    between atoms: _138  and  _139
REMARK   62  A    between atoms: _138  and  _141
REMARK   63  A    between atoms: _141  and  _142
REMARK   64  A    between atoms: _142  and  _143
REMARK   65  A    between atoms: _143  and  _144
REMARK   66  A    between atoms: _144  and  _145
REMARK   67  A    between atoms: _149  and  _151
REMARK   68  A    between atoms: _151  and  _152
REMARK   69  A    between atoms: _151  and  _154
REMARK   70  A    between atoms: _154  and  _155
REMARK   71  A    between atoms: _158  and  _160
REMARK   72  A    between atoms: _160  and  _161
REMARK   73  A    between atoms: _160  and  _163
REMARK   74  A    between atoms: _163  and  _164
REMARK   75  A    between atoms: _167  and  _169
REMARK   76  A    between atoms: _169  and  _170
REMARK   77  A    between atoms: _169  and  _172
REMARK   78  A    between atoms: _172  and  _173
REMARK   79  A    between atoms: _173  and  _174
REMARK   80  A    between atoms: _177  and  _179
REMARK   81  A    between atoms: _179  and  _180
REMARK   82  A    between atoms: _179  and  _182
REMARK   83  A    between atoms: _182  and  _183
REMARK   84  A    between atoms: _185  and  _187
REMARK   85  A    between atoms: _187  and  _188
REMARK   86  A    between atoms: _187  and  _190
REMARK   87  A    between atoms: _190  and  _191
REMARK   88  A    between atoms: _194  and  _196
REMARK   89  A    between atoms: _196  and  _197
REMARK   90  A    between atoms: _196  and  _199
REMARK   91  A    between atoms: _199  and  _200
REMARK   92  A    between atoms: _203  and  _205
REMARK   93  A    between atoms: _205  and  _206
REMARK   94  A    between atoms: _205  and  _208
REMARK   95  A    between atoms: _208  and  _209
REMARK   96  A    between atoms: _212  and  _214
REMARK   97  A    between atoms: _214  and  _215
REMARK   98  A    between atoms: _218  and  _220
REMARK   99  A    between atoms: _220  and  _221
REMARK  100  A    between atoms: _220  and  _223
REMARK  101  A    between atoms: _223  and  _224
REMARK  102  A    between atoms: _227  and  _229
REMARK  103  A    between atoms: _229  and  _230
REMARK  104  A    between atoms: _229  and  _232
REMARK  105  A    between atoms: _232  and  _233
REMARK  106  A    between atoms: _233  and  _234
REMARK  107  A    between atoms: _234  and  _235
REMARK  108  A    between atoms: _235  and  _236
REMARK  109  A    between atoms: _240  and  _242
REMARK  110  A    between atoms: _242  and  _243
REMARK  111  A    between atoms: _242  and  _245
REMARK  112  A    between atoms: _245  and  _246
REMARK  113  A    between atoms: _251  and  _252
REMARK  114  A    between atoms: _254  and  _256
REMARK  115  A    between atoms: _256  and  _257
REMARK  116  A    between atoms: _260  and  _262
REMARK  117  A    between atoms: _262  and  _263
REMARK  118  A    between atoms: _262  and  _265
REMARK  119  A    between atoms: _267  and  _269
REMARK  120  A    between atoms: _269  and  _270
REMARK  121  A    between atoms: _269  and  _272
REMARK  122  A    between atoms: _272  and  _273
REMARK  123  A    between atoms: _279  and  _281
REMARK  124  A    between atoms: _281  and  _282
REMARK  125  A    between atoms: _281  and  _284
REMARK  126  A    between atoms: _287  and  _289
REMARK  127  A    between atoms: _289  and  _290
REMARK  128  A    between atoms: _289  and  _292
REMARK  129  A    between atoms: _292  and  _293
REMARK  130  A    between atoms: _293  and  _294
REMARK  131  A    between atoms: _296  and  _298
REMARK  132  A    between atoms: _298  and  _299
REMARK  133  A    between atoms: _298  and  _301
REMARK  134  A    between atoms: _301  and  _302
REMARK  135  A    between atoms: _302  and  _303
REMARK  136  A    between atoms: _306  and  _308
REMARK  137  A    between atoms: _308  and  _309
REMARK  138  A    between atoms: _308  and  _311
REMARK  139  A    between atoms: _311  and  _312
REMARK  140  A    between atoms: _317  and  _318
REMARK  141  A    between atoms: _320  and  _322
REMARK  142  A    between atoms: _322  and  _323
REMARK  143  A    between atoms: _326  and  _328
REMARK  144  A    between atoms: _328  and  _329
REMARK  145  A    between atoms: _328  and  _331
REMARK  146  A    between atoms: _331  and  _332
REMARK  147  A    between atoms: _337  and  _339
REMARK  148  A    between atoms: _339  and  _340
REMARK  149  A    between atoms: _342  and  _344
REMARK  150  A    between atoms: _344  and  _345
REMARK  151  A    between atoms: _347  and  _349
REMARK  152  A    between atoms: _349  and  _350
REMARK  153  A    between atoms: _349  and  _352
REMARK  154  A    between atoms: _352  and  _353
REMARK  155  A    between atoms: _353  and  _354
REMARK  156  A    between atoms: _357  and  _359
REMARK  157  A    between atoms: _359  and  _360
REMARK  158  A    between atoms: _359  and  _362
REMARK  159  A    between atoms: _362  and  _363
REMARK  160  A    between atoms: _369  and  _371
REMARK  161  A    between atoms: _371  and  _372
REMARK  162  A    between atoms: _371  and  _374
REMARK  163  A    between atoms: _374  and  _375
REMARK  164  A    between atoms: _381  and  _383
REMARK  165  A    between atoms: _383  and  _384
REMARK  166  A    between atoms: _383  and  _386
REMARK  167  A    between atoms: _386  and  _387
REMARK  168  A    between atoms: _392  and  _393
REMARK  169  A    between atoms: _395  and  _397
REMARK  170  A    between atoms: _397  and  _398
REMARK  171  A    between atoms: _397  and  _400
REMARK  172  A    between atoms: _400  and  _401
REMARK  173  A    between atoms: _404  and  _406
REMARK  174  A    between atoms: _406  and  _407
REMARK  175  A    between atoms: _406  and  _409
REMARK  176  A    between atoms: _409  and  _410
REMARK  177  A    between atoms: _410  and  _411
REMARK  178  A    between atoms: _411  and  _412
REMARK  179  A    between atoms: _412  and  _413
REMARK  180  A    between atoms: _417  and  _419
REMARK  181  A    between atoms: _419  and  _420
REMARK  182  A    between atoms: _419  and  _422
REMARK  183  A    between atoms: _422  and  _423
REMARK  184  A    between atoms: _426  and  _428
REMARK  185  A    between atoms: _428  and  _429
REMARK  186  A    between atoms: _428  and  _431
REMARK  187  A    between atoms: _431  and  _432
REMARK  188  A    between atoms: _432  and  _433
REMARK  189  A    between atoms: _436  and  _438
REMARK  190  A    between atoms: _438  and  _439
REMARK  191  A    between atoms: _438  and  _441
REMARK  192  A    between atoms: _441  and  _442
REMARK  193  A    between atoms: _447  and  _449
REMARK  194  A    between atoms: _449  and  _450
REMARK  195  A    between atoms: _449  and  _452
REMARK  196  A    between atoms: _452  and  _453
REMARK  197  A    between atoms: _456  and  _458
REMARK  198  A    between atoms: _458  and  _459
REMARK  199  A    between atoms: _458  and  _461
REMARK  200  A    between atoms: _461  and  _462
REMARK  201  A    between atoms: _462  and  _463
REMARK  202  A    between atoms: _465  and  _467
REMARK  203  A    between atoms: _467  and  _468
REMARK  204  A    between atoms: _467  and  _470
REMARK  205  A    between atoms: _470  and  _471
REMARK  206  A    between atoms: _474  and  _476
REMARK  207  A    between atoms: _476  and  _477
REMARK  208  A    between atoms: _476  and  _479
REMARK  209  A    between atoms: _479  and  _480
REMARK  210  A    between atoms: _480  and  _481
REMARK  211  A    between atoms: _481  and  _482
REMARK  212  A    between atoms: _482  and  _483
REMARK  213  A    between atoms: _487  and  _489
REMARK  214  A    between atoms: _489  and  _490
REMARK  215  A    between atoms: _489  and  _492
REMARK  216  A    between atoms: _492  and  _493
REMARK  217  A    between atoms: _496  and  _498
REMARK  218  A    between atoms: _498  and  _499
REMARK  219  A    between atoms: _498  and  _501
REMARK  220  A    between atoms: _501  and  _502
REMARK  221  A    between atoms: _505  and  _507
REMARK  222  A    between atoms: _507  and  _508
REMARK  223  A    between atoms: _507  and  _510
REMARK  224  A    between atoms: _510  and  _511
REMARK  225  A    between atoms: _514  and  _516
REMARK  226  A    between atoms: _516  and  _517
REMARK  227  A    between atoms: _516  and  _519
REMARK  228  A    between atoms: _519  and  _520
REMARK  229  A    between atoms: _526  and  _528
REMARK  230  A    between atoms: _528  and  _529
REMARK  231  A    between atoms: _531  and  _533
REMARK  232  A    between atoms: _533  and  _534
REMARK  233  A    between atoms: _533  and  _536
REMARK  234  A    between atoms: _536  and  _537
REMARK  235  A    between atoms: _540  and  _542
REMARK  236  A    between atoms: _542  and  _543
REMARK  237  A    between atoms: _542  and  _545
REMARK  238  A    between atoms: _547  and  _549
REMARK  239  A    between atoms: _549  and  _550
REMARK  240  A    between atoms: _549  and  _552
REMARK  241  A    between atoms: _552  and  _553
REMARK  242  A    between atoms: _559  and  _561
REMARK  243  A    between atoms: _561  and  _562
REMARK  244  A    between atoms: _561  and  _564
REMARK  245  A    between atoms: _564  and  _565
REMARK  246  A    between atoms: _568  and  _570
REMARK  247  A    between atoms: _570  and  _571
REMARK  248  A    between atoms: _570  and  _573
REMARK  249  A    between atoms: _573  and  _574
REMARK  250  A    between atoms: _574  and  _575
REMARK  251  A    between atoms: _578  and  _580
REMARK  252  A    between atoms: _580  and  _581
REMARK  253  A    between atoms: _580  and  _583
REMARK  254  A    between atoms: _583  and  _584
REMARK  255  A    between atoms: _590  and  _592
REMARK  256  A    between atoms: _592  and  _593
REMARK  257  A    between atoms: _592  and  _595
REMARK  258  A    between atoms: _595  and  _596
REMARK                            x       y       z     vdW  Elec       q    Type
REMARK                         _______ _______ _______ _____ _____    ______ ____
ROOT
ATOM      1  O   HOH     1      24.389  -7.511  12.373  0.00  0.00    +0.000 OA
ENDROOT
TORSDOF 0
REMARK  Name = ../refined-set-2016/3d0e/3d0e_pocket.pdb
REMARK  258 active torsions:
REMARK  status: ('A' for Active; 'I' for Inactive)
REMARK    1  A    between atoms: _1  and  _3
REMARK    2  A    between atoms: _3  and  _4
REMARK    3  A    between atoms: _3  and  _6
REMARK    4  A    between atoms: _6  and  _7
REMARK    5  A    between atoms: _10  and  _12
REMARK    6  A    between atoms: _12  and  _13
REMARK    7  A    between atoms: _12  and  _15
REMARK    8  A    between atoms: _15  and  _16
REMARK    9  A    between atoms: _19  and  _21
REMARK   10  A    between atoms: _21  and  _22
REMARK   11  A    between atoms: _24  and  _26
REMARK   12  A    between atoms: _26  and  _27
REMARK   13  A    between atoms: _26  and  _29
REMARK   14  A    between atoms: _29  and  _30
REMARK   15  A    between atoms: _30  and  _31
REMARK   16  A    between atoms: _31  and  _32
REMARK   17  A    between atoms: _32  and  _33
REMARK   18  A    between atoms: _37  and  _39
REMARK   19  A    between atoms: _39  and  _40
REMARK   20  A    between atoms: _42  and  _44
REMARK   21  A    between atoms: _44  and  _45
REMARK   22  A    between atoms: _44  and  _47
REMARK   23  A    between atoms: _47  and  _48
REMARK   24  A    between atoms: _51  and  _53
REMARK   25  A    between atoms: _53  and  _54
REMARK   26  A    between atoms: _53  and  _56
REMARK   27  A    between atoms: _56  and  _57
REMARK   28  A    between atoms: _63  and  _65
REMARK   29  A    between atoms: _65  and  _66
REMARK   30  A    between atoms: _68  and  _70
REMARK   31  A    between atoms: _70  and  _71
REMARK   32  A    between atoms: _70  and  _73
REMARK   33  A    between atoms: _73  and  _74
REMARK   34  A    between atoms: _74  and  _75
REMARK   35  A    between atoms: _75  and  _76
REMARK   36  A    between atoms: _76  and  _77
REMARK   37  A    between atoms: _81  and  _83
REMARK   38  A    between atoms: _83  and  _84
REMARK   39  A    between atoms: _83  and  _86
REMARK   40  A    between atoms: _89  and  _91
REMARK   41  A    between atoms: _91  and  _92
REMARK   42  A    between atoms: _91  and  _94
REMARK   43  A    between atoms: _94  and  _95
REMARK   44  A    between atoms: _98  and  _100
REMARK   45  A    between atoms: _100  and  _101
REMARK   46  A    between atoms: _100  and  _103
REMARK   47  A    between atoms: _103  and  _104
REMARK   48  A    between atoms: _107  and  _109
REMARK   49  A    between atoms: _109  and  _110
REMARK   50  A    between atoms: _109  and  _112
REMARK   51  A    between atoms: _112  and  _113
REMARK   52  A    between atoms: _118  and  _119
REMARK   53  A    between atoms: _121  and  _123
REMARK   54  A    between atoms: _123  and  _124
REMARK   55  A    between atoms: _127  and  _129
REMARK   56  A    between atoms: _129  and  _130
REMARK   57  A    between atoms: _129  and  _132
REMARK   58  A    between atoms: _132  and  _133
REMARK   59  A    between atoms: _133  and  _134
REMARK   60  A    between atoms: _136  and  _138
REMARK   61  A    between atoms: _138  and  _139
REMARK   62  A    between atoms: _138  and  _141
REMARK   63  A    between atoms: _141  and  _142
REMARK   64  A    between atoms: _142  and  _143
REMARK   65  A    between atoms: _143  and  _144
REMARK   66  A    between atoms: _144  and  _145
REMARK   67  A    between atoms: _149  and  _151
REMARK   68  A    between atoms: _151  and  _152
REMARK   69  A    between atoms: _151  and  _154
REMARK   70  A    between atoms: _154  and  _155
REMARK   71  A    between atoms: _158  and  _160
REMARK   72  A    between atoms: _160  and  _161
REMARK   73  A    between atoms: _160  and  _163
REMARK   74  A    between atoms: _163  and  _164
REMARK   75  A    between atoms: _167  and  _169
REMARK   76  A    between atoms: _169  and  _170
REMARK   77  A    between atoms: _169  and  _172
REMARK   78  A    between atoms: _172  and  _173
REMARK   79  A    between atoms: _173  and  _174
REMARK   80  A    between atoms: _177  and  _179
REMARK   81  A    between atoms: _179  and  _180
REMARK   82  A    between atoms: _179  and  _182
REMARK   83  A    between atoms: _182  and  _183
REMARK   84  A    between atoms: _185  and  _187
REMARK   85  A    between atoms: _187  and  _188
REMARK   86  A    between atoms: _187  and  _190
REMARK   87  A    between atoms: _190  and  _191
REMARK   88  A    between atoms: _194  and  _196
REMARK   89  A    between atoms: _196  and  _197
REMARK   90  A    between atoms: _196  and  _199
REMARK   91  A    between atoms: _199  and  _200
REMARK   92  A    between atoms: _203  and  _205
REMARK   93  A    between atoms: _205  and  _206
REMARK   94  A    between atoms: _205  and  _208
REMARK   95  A    between atoms: _208  and  _209
REMARK   96  A    between atoms: _212  and  _214
REMARK   97  A    between atoms: _214  and  _215
REMARK   98  A    between atoms: _218  and  _220
REMARK   99  A    between atoms: _220  and  _221
REMARK  100  A    between atoms: _220  and  _223
REMARK  101  A    between atoms: _223  and  _224
REMARK  102  A    between atoms: _227  and  _229
REMARK  103  A    between atoms: _229  and  _230
REMARK  104  A    between atoms: _229  and  _232
REMARK  105  A    between atoms: _232  and  _233
REMARK  106  A    between atoms: _233  and  _234
REMARK  107  A    between atoms: _234  and  _235
REMARK  108  A    between atoms: _235  and  _236
REMARK  109  A    between atoms: _240  and  _242
REMARK  110  A    between atoms: _242  and  _243
REMARK  111  A    between atoms: _242  and  _245
REMARK  112  A    between atoms: _245  and  _246
REMARK  113  A    between atoms: _251  and  _252
REMARK  114  A    between atoms: _254  and  _256
REMARK  115  A    between atoms: _256  and  _257
REMARK  116  A    between atoms: _260  and  _262
REMARK  117  A    between atoms: _262  and  _263
REMARK  118  A    between atoms: _262  and  _265
REMARK  119  A    between atoms: _267  and  _269
REMARK  120  A    between atoms: _269  and  _270
REMARK  121  A    between atoms: _269  and  _272
REMARK  122  A    between atoms: _272  and  _273
REMARK  123  A    between atoms: _279  and  _281
REMARK  124  A    between atoms: _281  and  _282
REMARK  125  A    between atoms: _281  and  _284
REMARK  126  A    between atoms: _287  and  _289
REMARK  127  A    between atoms: _289  and  _290
REMARK  128  A    between atoms: _289  and  _292
REMARK  129  A    between atoms: _292  and  _293
REMARK  130  A    between atoms: _293  and  _294
REMARK  131  A    between atoms: _296  and  _298
REMARK  132  A    between atoms: _298  and  _299
REMARK  133  A    between atoms: _298  and  _301
REMARK  134  A    between atoms: _301  and  _302
REMARK  135  A    between atoms: _302  and  _303
REMARK  136  A    between atoms: _306  and  _308
REMARK  137  A    between atoms: _308  and  _309
REMARK  138  A    between atoms: _308  and  _311
REMARK  139  A    between atoms: _311  and  _312
REMARK  140  A    between atoms: _317  and  _318
REMARK  141  A    between atoms: _320  and  _322
REMARK  142  A    between atoms: _322  and  _323
REMARK  143  A    between atoms: _326  and  _328
REMARK  144  A    between atoms: _328  and  _329
REMARK  145  A    between atoms: _328  and  _331
REMARK  146  A    between atoms: _331  and  _332
REMARK  147  A    between atoms: _337  and  _339
REMARK  148  A    between atoms: _339  and  _340
REMARK  149  A    between atoms: _342  and  _344
REMARK  150  A    between atoms: _344  and  _345
REMARK  151  A    between atoms: _347  and  _349
REMARK  152  A    between atoms: _349  and  _350
REMARK  153  A    between atoms: _349  and  _352
REMARK  154  A    between atoms: _352  and  _353
REMARK  155  A    between atoms: _353  and  _354
REMARK  156  A    between atoms: _357  and  _359
REMARK  157  A    between atoms: _359  and  _360
REMARK  158  A    between atoms: _359  and  _362
REMARK  159  A    between atoms: _362  and  _363
REMARK  160  A    between atoms: _369  and  _371
REMARK  161  A    between atoms: _371  and  _372
REMARK  162  A    between atoms: _371  and  _374
REMARK  163  A    between atoms: _374  and  _375
REMARK  164  A    between atoms: _381  and  _383
REMARK  165  A    between atoms: _383  and  _384
REMARK  166  A    between atoms: _383  and  _386
REMARK  167  A    between atoms: _386  and  _387
REMARK  168  A    between atoms: _392  and  _393
REMARK  169  A    between atoms: _395  and  _397
REMARK  170  A    between atoms: _397  and  _398
REMARK  171  A    between atoms: _397  and  _400
REMARK  172  A    between atoms: _400  and  _401
REMARK  173  A    between atoms: _404  and  _406
REMARK  174  A    between atoms: _406  and  _407
REMARK  175  A    between atoms: _406  and  _409
REMARK  176  A    between atoms: _409  and  _410
REMARK  177  A    between atoms: _410  and  _411
REMARK  178  A    between atoms: _411  and  _412
REMARK  179  A    between atoms: _412  and  _413
REMARK  180  A    between atoms: _417  and  _419
REMARK  181  A    between atoms: _419  and  _420
REMARK  182  A    between atoms: _419  and  _422
REMARK  183  A    between atoms: _422  and  _423
REMARK  184  A    between atoms: _426  and  _428
REMARK  185  A    between atoms: _428  and  _429
REMARK  186  A    between atoms: _428  and  _431
REMARK  187  A    between atoms: _431  and  _432
REMARK  188  A    between atoms: _432  and  _433
REMARK  189  A    between atoms: _436  and  _438
REMARK  190  A    between atoms: _438  and  _439
REMARK  191  A    between atoms: _438  and  _441
REMARK  192  A    between atoms: _441  and  _442
REMARK  193  A    between atoms: _447  and  _449
REMARK  194  A    between atoms: _449  and  _450
REMARK  195  A    between atoms: _449  and  _452
REMARK  196  A    between atoms: _452  and  _453
REMARK  197  A    between atoms: _456  and  _458
REMARK  198  A    between atoms: _458  and  _459
REMARK  199  A    between atoms: _458  and  _461
REMARK  200  A    between atoms: _461  and  _462
REMARK  201  A    between atoms: _462  and  _463
REMARK  202  A    between atoms: _465  and  _467
REMARK  203  A    between atoms: _467  and  _468
REMARK  204  A    between atoms: _467  and  _470
REMARK  205  A    between atoms: _470  and  _471
REMARK  206  A    between atoms: _474  and  _476
REMARK  207  A    between atoms: _476  and  _477
REMARK  208  A    between atoms: _476  and  _479
REMARK  209  A    between atoms: _479  and  _480
REMARK  210  A    between atoms: _480  and  _481
REMARK  211  A    between atoms: _481  and  _482
REMARK  212  A    between atoms: _482  and  _483
REMARK  213  A    between atoms: _487  and  _489
REMARK  214  A    between atoms: _489  and  _490
REMARK  215  A    between atoms: _489  and  _492
REMARK  216  A    between atoms: _492  and  _493
REMARK  217  A    between atoms: _496  and  _498
REMARK  218  A    between atoms: _498  and  _499
REMARK  219  A    between atoms: _498  and  _501
REMARK  220  A    between atoms: _501  and  _502
REMARK  221  A    between atoms: _505  and  _507
REMARK  222  A    between atoms: _507  and  _508
REMARK  223  A    between atoms: _507  and  _510
REMARK  224  A    between atoms: _510  and  _511
REMARK  225  A    between atoms: _514  and  _516
REMARK  226  A    between atoms: _516  and  _517
REMARK  227  A    between atoms: _516  and  _519
REMARK  228  A    between atoms: _519  and  _520
REMARK  229  A    between atoms: _526  and  _528
REMARK  230  A    between atoms: _528  and  _529
REMARK  231  A    between atoms: _531  and  _533
REMARK  232  A    between atoms: _533  and  _534
REMARK  233  A    between atoms: _533  and  _536
REMARK  234  A    between atoms: _536  and  _537
REMARK  235  A    between atoms: _540  and  _542
REMARK  236  A    between atoms: _542  and  _543
REMARK  237  A    between atoms: _542  and  _545
REMARK  238  A    between atoms: _547  and  _549
REMARK  239  A    between atoms: _549  and  _550
REMARK  240  A    between atoms: _549  and  _552
REMARK  241  A    between atoms: _552  and  _553
REMARK  242  A    between atoms: _559  and  _561
REMARK  243  A    between atoms: _561  and  _562
REMARK  244  A    between atoms: _561  and  _564
REMARK  245  A    between atoms: _564  and  _565
REMARK  246  A    between atoms: _568  and  _570
REMARK  247  A    between atoms: _570  and  _571
REMARK  248  A    between atoms: _570  and  _573
REMARK  249  A    between atoms: _573  and  _574
REMARK  250  A    between atoms: _574  and  _575
REMARK  251  A    between atoms: _578  and  _580
REMARK  252  A    between atoms: _580  and  _581
REMARK  253  A    between atoms: _580  and  _583
REMARK  254  A    between atoms: _583  and  _584
REMARK  255  A    between atoms: _590  and  _592
REMARK  256  A    between atoms: _592  and  _593
REMARK  257  A    between atoms: _592  and  _595
REMARK  258  A    between atoms: _595  and  _596
REMARK                            x       y       z     vdW  Elec       q    Type
REMARK                         _______ _______ _______ _____ _____    ______ ____
ROOT
ATOM      1  O   HOH     1      23.266  -7.659   0.447  0.00  0.00    +0.000 OA
ENDROOT
TORSDOF 0
REMARK  Name = ../refined-set-2016/3d0e/3d0e_pocket.pdb
REMARK  258 active torsions:
REMARK  status: ('A' for Active; 'I' for Inactive)
REMARK    1  A    between atoms: _1  and  _3
REMARK    2  A    between atoms: _3  and  _4
REMARK    3  A    between atoms: _3  and  _6
REMARK    4  A    between atoms: _6  and  _7
REMARK    5  A    between atoms: _10  and  _12
REMARK    6  A    between atoms: _12  and  _13
REMARK    7  A    between atoms: _12  and  _15
REMARK    8  A    between atoms: _15  and  _16
REMARK    9  A    between atoms: _19  and  _21
REMARK   10  A    between atoms: _21  and  _22
REMARK   11  A    between atoms: _24  and  _26
REMARK   12  A    between atoms: _26  and  _27
REMARK   13  A    between atoms: _26  and  _29
REMARK   14  A    between atoms: _29  and  _30
REMARK   15  A    between atoms: _30  and  _31
REMARK   16  A    between atoms: _31  and  _32
REMARK   17  A    between atoms: _32  and  _33
REMARK   18  A    between atoms: _37  and  _39
REMARK   19  A    between atoms: _39  and  _40
REMARK   20  A    between atoms: _42  and  _44
REMARK   21  A    between atoms: _44  and  _45
REMARK   22  A    between atoms: _44  and  _47
REMARK   23  A    between atoms: _47  and  _48
REMARK   24  A    between atoms: _51  and  _53
REMARK   25  A    between atoms: _53  and  _54
REMARK   26  A    between atoms: _53  and  _56
REMARK   27  A    between atoms: _56  and  _57
REMARK   28  A    between atoms: _63  and  _65
REMARK   29  A    between atoms: _65  and  _66
REMARK   30  A    between atoms: _68  and  _70
REMARK   31  A    between atoms: _70  and  _71
REMARK   32  A    between atoms: _70  and  _73
REMARK   33  A    between atoms: _73  and  _74
REMARK   34  A    between atoms: _74  and  _75
REMARK   35  A    between atoms: _75  and  _76
REMARK   36  A    between atoms: _76  and  _77
REMARK   37  A    between atoms: _81  and  _83
REMARK   38  A    between atoms: _83  and  _84
REMARK   39  A    between atoms: _83  and  _86
REMARK   40  A    between atoms: _89  and  _91
REMARK   41  A    between atoms: _91  and  _92
REMARK   42  A    between atoms: _91  and  _94
REMARK   43  A    between atoms: _94  and  _95
REMARK   44  A    between atoms: _98  and  _100
REMARK   45  A    between atoms: _100  and  _101
REMARK   46  A    between atoms: _100  and  _103
REMARK   47  A    between atoms: _103  and  _104
REMARK   48  A    between atoms: _107  and  _109
REMARK   49  A    between atoms: _109  and  _110
REMARK   50  A    between atoms: _109  and  _112
REMARK   51  A    between atoms: _112  and  _113
REMARK   52  A    between atoms: _118  and  _119
REMARK   53  A    between atoms: _121  and  _123
REMARK   54  A    between atoms: _123  and  _124
REMARK   55  A    between atoms: _127  and  _129
REMARK   56  A    between atoms: _129  and  _130
REMARK   57  A    between atoms: _129  and  _132
REMARK   58  A    between atoms: _132  and  _133
REMARK   59  A    between atoms: _133  and  _134
REMARK   60  A    between atoms: _136  and  _138
REMARK   61  A    between atoms: _138  and  _139
REMARK   62  A    between atoms: _138  and  _141
REMARK   63  A    between atoms: _141  and  _142
REMARK   64  A    between atoms: _142  and  _143
REMARK   65  A    between atoms: _143  and  _144
REMARK   66  A    between atoms: _144  and  _145
REMARK   67  A    between atoms: _149  and  _151
REMARK   68  A    between atoms: _151  and  _152
REMARK   69  A    between atoms: _151  and  _154
REMARK   70  A    between atoms: _154  and  _155
REMARK   71  A    between atoms: _158  and  _160
REMARK   72  A    between atoms: _160  and  _161
REMARK   73  A    between atoms: _160  and  _163
REMARK   74  A    between atoms: _163  and  _164
REMARK   75  A    between atoms: _167  and  _169
REMARK   76  A    between atoms: _169  and  _170
REMARK   77  A    between atoms: _169  and  _172
REMARK   78  A    between atoms: _172  and  _173
REMARK   79  A    between atoms: _173  and  _174
REMARK   80  A    between atoms: _177  and  _179
REMARK   81  A    between atoms: _179  and  _180
REMARK   82  A    between atoms: _179  and  _182
REMARK   83  A    between atoms: _182  and  _183
REMARK   84  A    between atoms: _185  and  _187
REMARK   85  A    between atoms: _187  and  _188
REMARK   86  A    between atoms: _187  and  _190
REMARK   87  A    between atoms: _190  and  _191
REMARK   88  A    between atoms: _194  and  _196
REMARK   89  A    between atoms: _196  and  _197
REMARK   90  A    between atoms: _196  and  _199
REMARK   91  A    between atoms: _199  and  _200
REMARK   92  A    between atoms: _203  and  _205
REMARK   93  A    between atoms: _205  and  _206
REMARK   94  A    between atoms: _205  and  _208
REMARK   95  A    between atoms: _208  and  _209
REMARK   96  A    between atoms: _212  and  _214
REMARK   97  A    between atoms: _214  and  _215
REMARK   98  A    between atoms: _218  and  _220
REMARK   99  A    between atoms: _220  and  _221
REMARK  100  A    between atoms: _220  and  _223
REMARK  101  A    between atoms: _223  and  _224
REMARK  102  A    between atoms: _227  and  _229
REMARK  103  A    between atoms: _229  and  _230
REMARK  104  A    between atoms: _229  and  _232
REMARK  105  A    between atoms: _232  and  _233
REMARK  106  A    between atoms: _233  and  _234
REMARK  107  A    between atoms: _234  and  _235
REMARK  108  A    between atoms: _235  and  _236
REMARK  109  A    between atoms: _240  and  _242
REMARK  110  A    between atoms: _242  and  _243
REMARK  111  A    between atoms: _242  and  _245
REMARK  112  A    between atoms: _245  and  _246
REMARK  113  A    between atoms: _251  and  _252
REMARK  114  A    between atoms: _254  and  _256
REMARK  115  A    between atoms: _256  and  _257
REMARK  116  A    between atoms: _260  and  _262
REMARK  117  A    between atoms: _262  and  _263
REMARK  118  A    between atoms: _262  and  _265
REMARK  119  A    between atoms: _267  and  _269
REMARK  120  A    between atoms: _269  and  _270
REMARK  121  A    between atoms: _269  and  _272
REMARK  122  A    between atoms: _272  and  _273
REMARK  123  A    between atoms: _279  and  _281
REMARK  124  A    between atoms: _281  and  _282
REMARK  125  A    between atoms: _281  and  _284
REMARK  126  A    between atoms: _287  and  _289
REMARK  127  A    between atoms: _289  and  _290
REMARK  128  A    between atoms: _289  and  _292
REMARK  129  A    between atoms: _292  and  _293
REMARK  130  A    between atoms: _293  and  _294
REMARK  131  A    between atoms: _296  and  _298
REMARK  132  A    between atoms: _298  and  _299
REMARK  133  A    between atoms: _298  and  _301
REMARK  134  A    between atoms: _301  and  _302
REMARK  135  A    between atoms: _302  and  _303
REMARK  136  A    between atoms: _306  and  _308
REMARK  137  A    between atoms: _308  and  _309
REMARK  138  A    between atoms: _308  and  _311
REMARK  139  A    between atoms: _311  and  _312
REMARK  140  A    between atoms: _317  and  _318
REMARK  141  A    between atoms: _320  and  _322
REMARK  142  A    between atoms: _322  and  _323
REMARK  143  A    between atoms: _326  and  _328
REMARK  144  A    between atoms: _328  and  _329
REMARK  145  A    between atoms: _328  and  _331
REMARK  146  A    between atoms: _331  and  _332
REMARK  147  A    between atoms: _337  and  _339
REMARK  148  A    between atoms: _339  and  _340
REMARK  149  A    between atoms: _342  and  _344
REMARK  150  A    between atoms: _344  and  _345
REMARK  151  A    between atoms: _347  and  _349
REMARK  152  A    between atoms: _349  and  _350
REMARK  153  A    between atoms: _349  and  _352
REMARK  154  A    between atoms: _352  and  _353
REMARK  155  A    between atoms: _353  and  _354
REMARK  156  A    between atoms: _357  and  _359
REMARK  157  A    between atoms: _359  and  _360
REMARK  158  A    between atoms: _359  and  _362
REMARK  159  A    between atoms: _362  and  _363
REMARK  160  A    between atoms: _369  and  _371
REMARK  161  A    between atoms: _371  and  _372
REMARK  162  A    between atoms: _371  and  _374
REMARK  163  A    between atoms: _374  and  _375
REMARK  164  A    between atoms: _381  and  _383
REMARK  165  A    between atoms: _383  and  _384
REMARK  166  A    between atoms: _383  and  _386
REMARK  167  A    between atoms: _386  and  _387
REMARK  168  A    between atoms: _392  and  _393
REMARK  169  A    between atoms: _395  and  _397
REMARK  170  A    between atoms: _397  and  _398
REMARK  171  A    between atoms: _397  and  _400
REMARK  172  A    between atoms: _400  and  _401
REMARK  173  A    between atoms: _404  and  _406
REMARK  174  A    between atoms: _406  and  _407
REMARK  175  A    between atoms: _406  and  _409
REMARK  176  A    between atoms: _409  and  _410
REMARK  177  A    between atoms: _410  and  _411
REMARK  178  A    between atoms: _411  and  _412
REMARK  179  A    between atoms: _412  and  _413
REMARK  180  A    between atoms: _417  and  _419
REMARK  181  A    between atoms: _419  and  _420
REMARK  182  A    between atoms: _419  and  _422
REMARK  183  A    between atoms: _422  and  _423
REMARK  184  A    between atoms: _426  and  _428
REMARK  185  A    between atoms: _428  and  _429
REMARK  186  A    between atoms: _428  and  _431
REMARK  187  A    between atoms: _431  and  _432
REMARK  188  A    between atoms: _432  and  _433
REMARK  189  A    between atoms: _436  and  _438
REMARK  190  A    between atoms: _438  and  _439
REMARK  191  A    between atoms: _438  and  _441
REMARK  192  A    between atoms: _441  and  _442
REMARK  193  A    between atoms: _447  and  _449
REMARK  194  A    between atoms: _449  and  _450
REMARK  195  A    between atoms: _449  and  _452
REMARK  196  A    between atoms: _452  and  _453
REMARK  197  A    between atoms: _456  and  _458
REMARK  198  A    between atoms: _458  and  _459
REMARK  199  A    between atoms: _458  and  _461
REMARK  200  A    between atoms: _461  and  _462
REMARK  201  A    between atoms: _462  and  _463
REMARK  202  A    between atoms: _465  and  _467
REMARK  203  A    between atoms: _467  and  _468
REMARK  204  A    between atoms: _467  and  _470
REMARK  205  A    between atoms: _470  and  _471
REMARK  206  A    between atoms: _474  and  _476
REMARK  207  A    between atoms: _476  and  _477
REMARK  208  A    between atoms: _476  and  _479
REMARK  209  A    between atoms: _479  and  _480
REMARK  210  A    between atoms: _480  and  _481
REMARK  211  A    between atoms: _481  and  _482
REMARK  212  A    between atoms: _482  and  _483
REMARK  213  A    between atoms: _487  and  _489
REMARK  214  A    between atoms: _489  and  _490
REMARK  215  A    between atoms: _489  and  _492
REMARK  216  A    between atoms: _492  and  _493
REMARK  217  A    between atoms: _496  and  _498
REMARK  218  A    between atoms: _498  and  _499
REMARK  219  A    between atoms: _498  and  _501
REMARK  220  A    between atoms: _501  and  _502
REMARK  221  A    between atoms: _505  and  _507
REMARK  222  A    between atoms: _507  and  _508
REMARK  223  A    between atoms: _507  and  _510
REMARK  224  A    between atoms: _510  and  _511
REMARK  225  A    between atoms: _514  and  _516
REMARK  226  A    between atoms: _516  and  _517
REMARK  227  A    between atoms: _516  and  _519
REMARK  228  A    between atoms: _519  and  _520
REMARK  229  A    between atoms: _526  and  _528
REMARK  230  A    between atoms: _528  and  _529
REMARK  231  A    between atoms: _531  and  _533
REMARK  232  A    between atoms: _533  and  _534
REMARK  233  A    between atoms: _533  and  _536
REMARK  234  A    between atoms: _536  and  _537
REMARK  235  A    between atoms: _540  and  _542
REMARK  236  A    between atoms: _542  and  _543
REMARK  237  A    between atoms: _542  and  _545
REMARK  238  A    between atoms: _547  and  _549
REMARK  239  A    between atoms: _549  and  _550
REMARK  240  A    between atoms: _549  and  _552
REMARK  241  A    between atoms: _552  and  _553
REMARK  242  A    between atoms: _559  and  _561
REMARK  243  A    between atoms: _561  and  _562
REMARK  244  A    between atoms: _561  and  _564
REMARK  245  A    between atoms: _564  and  _565
REMARK  246  A    between atoms: _568  and  _570
REMARK  247  A    between atoms: _570  and  _571
REMARK  248  A    between atoms: _570  and  _573
REMARK  249  A    between atoms: _573  and  _574
REMARK  250  A    between atoms: _574  and  _575
REMARK  251  A    between atoms: _578  and  _580
REMARK  252  A    between atoms: _580  and  _581
REMARK  253  A    between atoms: _580  and  _583
REMARK  254  A    between atoms: _583  and  _584
REMARK  255  A    between atoms: _590  and  _592
REMARK  256  A    between atoms: _592  and  _593
REMARK  257  A    between atoms: _592  and  _595
REMARK  258  A    between atoms: _595  and  _596
REMARK                            x       y       z     vdW  Elec       q    Type
REMARK                         _______ _______ _______ _____ _____    ______ ____
ROOT
ATOM      1  O   HOH     1      17.578 -19.911  15.696  0.00  0.00    +0.000 OA
ENDROOT
TORSDOF 0
REMARK  Name = ../refined-set-2016/3d0e/3d0e_pocket.pdb
REMARK  258 active torsions:
REMARK  status: ('A' for Active; 'I' for Inactive)
REMARK    1  A    between atoms: _1  and  _3
REMARK    2  A    between atoms: _3  and  _4
REMARK    3  A    between atoms: _3  and  _6
REMARK    4  A    between atoms: _6  and  _7
REMARK    5  A    between atoms: _10  and  _12
REMARK    6  A    between atoms: _12  and  _13
REMARK    7  A    between atoms: _12  and  _15
REMARK    8  A    between atoms: _15  and  _16
REMARK    9  A    between atoms: _19  and  _21
REMARK   10  A    between atoms: _21  and  _22
REMARK   11  A    between atoms: _24  and  _26
REMARK   12  A    between atoms: _26  and  _27
REMARK   13  A    between atoms: _26  and  _29
REMARK   14  A    between atoms: _29  and  _30
REMARK   15  A    between atoms: _30  and  _31
REMARK   16  A    between atoms: _31  and  _32
REMARK   17  A    between atoms: _32  and  _33
REMARK   18  A    between atoms: _37  and  _39
REMARK   19  A    between atoms: _39  and  _40
REMARK   20  A    between atoms: _42  and  _44
REMARK   21  A    between atoms: _44  and  _45
REMARK   22  A    between atoms: _44  and  _47
REMARK   23  A    between atoms: _47  and  _48
REMARK   24  A    between atoms: _51  and  _53
REMARK   25  A    between atoms: _53  and  _54
REMARK   26  A    between atoms: _53  and  _56
REMARK   27  A    between atoms: _56  and  _57
REMARK   28  A    between atoms: _63  and  _65
REMARK   29  A    between atoms: _65  and  _66
REMARK   30  A    between atoms: _68  and  _70
REMARK   31  A    between atoms: _70  and  _71
REMARK   32  A    between atoms: _70  and  _73
REMARK   33  A    between atoms: _73  and  _74
REMARK   34  A    between atoms: _74  and  _75
REMARK   35  A    between atoms: _75  and  _76
REMARK   36  A    between atoms: _76  and  _77
REMARK   37  A    between atoms: _81  and  _83
REMARK   38  A    between atoms: _83  and  _84
REMARK   39  A    between atoms: _83  and  _86
REMARK   40  A    between atoms: _89  and  _91
REMARK   41  A    between atoms: _91  and  _92
REMARK   42  A    between atoms: _91  and  _94
REMARK   43  A    between atoms: _94  and  _95
REMARK   44  A    between atoms: _98  and  _100
REMARK   45  A    between atoms: _100  and  _101
REMARK   46  A    between atoms: _100  and  _103
REMARK   47  A    between atoms: _103  and  _104
REMARK   48  A    between atoms: _107  and  _109
REMARK   49  A    between atoms: _109  and  _110
REMARK   50  A    between atoms: _109  and  _112
REMARK   51  A    between atoms: _112  and  _113
REMARK   52  A    between atoms: _118  and  _119
REMARK   53  A    between atoms: _121  and  _123
REMARK   54  A    between atoms: _123  and  _124
REMARK   55  A    between atoms: _127  and  _129
REMARK   56  A    between atoms: _129  and  _130
REMARK   57  A    between atoms: _129  and  _132
REMARK   58  A    between atoms: _132  and  _133
REMARK   59  A    between atoms: _133  and  _134
REMARK   60  A    between atoms: _136  and  _138
REMARK   61  A    between atoms: _138  and  _139
REMARK   62  A    between atoms: _138  and  _141
REMARK   63  A    between atoms: _141  and  _142
REMARK   64  A    between atoms: _142  and  _143
REMARK   65  A    between atoms: _143  and  _144
REMARK   66  A    between atoms: _144  and  _145
REMARK   67  A    between atoms: _149  and  _151
REMARK   68  A    between atoms: _151  and  _152
REMARK   69  A    between atoms: _151  and  _154
REMARK   70  A    between atoms: _154  and  _155
REMARK   71  A    between atoms: _158  and  _160
REMARK   72  A    between atoms: _160  and  _161
REMARK   73  A    between atoms: _160  and  _163
REMARK   74  A    between atoms: _163  and  _164
REMARK   75  A    between atoms: _167  and  _169
REMARK   76  A    between atoms: _169  and  _170
REMARK   77  A    between atoms: _169  and  _172
REMARK   78  A    between atoms: _172  and  _173
REMARK   79  A    between atoms: _173  and  _174
REMARK   80  A    between atoms: _177  and  _179
REMARK   81  A    between atoms: _179  and  _180
REMARK   82  A    between atoms: _179  and  _182
REMARK   83  A    between atoms: _182  and  _183
REMARK   84  A    between atoms: _185  and  _187
REMARK   85  A    between atoms: _187  and  _188
REMARK   86  A    between atoms: _187  and  _190
REMARK   87  A    between atoms: _190  and  _191
REMARK   88  A    between atoms: _194  and  _196
REMARK   89  A    between atoms: _196  and  _197
REMARK   90  A    between atoms: _196  and  _199
REMARK   91  A    between atoms: _199  and  _200
REMARK   92  A    between atoms: _203  and  _205
REMARK   93  A    between atoms: _205  and  _206
REMARK   94  A    between atoms: _205  and  _208
REMARK   95  A    between atoms: _208  and  _209
REMARK   96  A    between atoms: _212  and  _214
REMARK   97  A    between atoms: _214  and  _215
REMARK   98  A    between atoms: _218  and  _220
REMARK   99  A    between atoms: _220  and  _221
REMARK  100  A    between atoms: _220  and  _223
REMARK  101  A    between atoms: _223  and  _224
REMARK  102  A    between atoms: _227  and  _229
REMARK  103  A    between atoms: _229  and  _230
REMARK  104  A    between atoms: _229  and  _232
REMARK  105  A    between atoms: _232  and  _233
REMARK  106  A    between atoms: _233  and  _234
REMARK  107  A    between atoms: _234  and  _235
REMARK  108  A    between atoms: _235  and  _236
REMARK  109  A    between atoms: _240  and  _242
REMARK  110  A    between atoms: _242  and  _243
REMARK  111  A    between atoms: _242  and  _245
REMARK  112  A    between atoms: _245  and  _246
REMARK  113  A    between atoms: _251  and  _252
REMARK  114  A    between atoms: _254  and  _256
REMARK  115  A    between atoms: _256  and  _257
REMARK  116  A    between atoms: _260  and  _262
REMARK  117  A    between atoms: _262  and  _263
REMARK  118  A    between atoms: _262  and  _265
REMARK  119  A    between atoms: _267  and  _269
REMARK  120  A    between atoms: _269  and  _270
REMARK  121  A    between atoms: _269  and  _272
REMARK  122  A    between atoms: _272  and  _273
REMARK  123  A    between atoms: _279  and  _281
REMARK  124  A    between atoms: _281  and  _282
REMARK  125  A    between atoms: _281  and  _284
REMARK  126  A    between atoms: _287  and  _289
REMARK  127  A    between atoms: _289  and  _290
REMARK  128  A    between atoms: _289  and  _292
REMARK  129  A    between atoms: _292  and  _293
REMARK  130  A    between atoms: _293  and  _294
REMARK  131  A    between atoms: _296  and  _298
REMARK  132  A    between atoms: _298  and  _299
REMARK  133  A    between atoms: _298  and  _301
REMARK  134  A    between atoms: _301  and  _302
REMARK  135  A    between atoms: _302  and  _303
REMARK  136  A    between atoms: _306  and  _308
REMARK  137  A    between atoms: _308  and  _309
REMARK  138  A    between atoms: _308  and  _311
REMARK  139  A    between atoms: _311  and  _312
REMARK  140  A    between atoms: _317  and  _318
REMARK  141  A    between atoms: _320  and  _322
REMARK  142  A    between atoms: _322  and  _323
REMARK  143  A    between atoms: _326  and  _328
REMARK  144  A    between atoms: _328  and  _329
REMARK  145  A    between atoms: _328  and  _331
REMARK  146  A    between atoms: _331  and  _332
REMARK  147  A    between atoms: _337  and  _339
REMARK  148  A    between atoms: _339  and  _340
REMARK  149  A    between atoms: _342  and  _344
REMARK  150  A    between atoms: _344  and  _345
REMARK  151  A    between atoms: _347  and  _349
REMARK  152  A    between atoms: _349  and  _350
REMARK  153  A    between atoms: _349  and  _352
REMARK  154  A    between atoms: _352  and  _353
REMARK  155  A    between atoms: _353  and  _354
REMARK  156  A    between atoms: _357  and  _359
REMARK  157  A    between atoms: _359  and  _360
REMARK  158  A    between atoms: _359  and  _362
REMARK  159  A    between atoms: _362  and  _363
REMARK  160  A    between atoms: _369  and  _371
REMARK  161  A    between atoms: _371  and  _372
REMARK  162  A    between atoms: _371  and  _374
REMARK  163  A    between atoms: _374  and  _375
REMARK  164  A    between atoms: _381  and  _383
REMARK  165  A    between atoms: _383  and  _384
REMARK  166  A    between atoms: _383  and  _386
REMARK  167  A    between atoms: _386  and  _387
REMARK  168  A    between atoms: _392  and  _393
REMARK  169  A    between atoms: _395  and  _397
REMARK  170  A    between atoms: _397  and  _398
REMARK  171  A    between atoms: _397  and  _400
REMARK  172  A    between atoms: _400  and  _401
REMARK  173  A    between atoms: _404  and  _406
REMARK  174  A    between atoms: _406  and  _407
REMARK  175  A    between atoms: _406  and  _409
REMARK  176  A    between atoms: _409  and  _410
REMARK  177  A    between atoms: _410  and  _411
REMARK  178  A    between atoms: _411  and  _412
REMARK  179  A    between atoms: _412  and  _413
REMARK  180  A    between atoms: _417  and  _419
REMARK  181  A    between atoms: _419  and  _420
REMARK  182  A    between atoms: _419  and  _422
REMARK  183  A    between atoms: _422  and  _423
REMARK  184  A    between atoms: _426  and  _428
REMARK  185  A    between atoms: _428  and  _429
REMARK  186  A    between atoms: _428  and  _431
REMARK  187  A    between atoms: _431  and  _432
REMARK  188  A    between atoms: _432  and  _433
REMARK  189  A    between atoms: _436  and  _438
REMARK  190  A    between atoms: _438  and  _439
REMARK  191  A    between atoms: _438  and  _441
REMARK  192  A    between atoms: _441  and  _442
REMARK  193  A    between atoms: _447  and  _449
REMARK  194  A    between atoms: _449  and  _450
REMARK  195  A    between atoms: _449  and  _452
REMARK  196  A    between atoms: _452  and  _453
REMARK  197  A    between atoms: _456  and  _458
REMARK  198  A    between atoms: _458  and  _459
REMARK  199  A    between atoms: _458  and  _461
REMARK  200  A    between atoms: _461  and  _462
REMARK  201  A    between atoms: _462  and  _463
REMARK  202  A    between atoms: _465  and  _467
REMARK  203  A    between atoms: _467  and  _468
REMARK  204  A    between atoms: _467  and  _470
REMARK  205  A    between atoms: _470  and  _471
REMARK  206  A    between atoms: _474  and  _476
REMARK  207  A    between atoms: _476  and  _477
REMARK  208  A    between atoms: _476  and  _479
REMARK  209  A    between atoms: _479  and  _480
REMARK  210  A    between atoms: _480  and  _481
REMARK  211  A    between atoms: _481  and  _482
REMARK  212  A    between atoms: _482  and  _483
REMARK  213  A    between atoms: _487  and  _489
REMARK  214  A    between atoms: _489  and  _490
REMARK  215  A    between atoms: _489  and  _492
REMARK  216  A    between atoms: _492  and  _493
REMARK  217  A    between atoms: _496  and  _498
REMARK  218  A    between atoms: _498  and  _499
REMARK  219  A    between atoms: _498  and  _501
REMARK  220  A    between atoms: _501  and  _502
REMARK  221  A    between atoms: _505  and  _507
REMARK  222  A    between atoms: _507  and  _508
REMARK  223  A    between atoms: _507  and  _510
REMARK  224  A    between atoms: _510  and  _511
REMARK  225  A    between atoms: _514  and  _516
REMARK  226  A    between atoms: _516  and  _517
REMARK  227  A    between atoms: _516  and  _519
REMARK  228  A    between atoms: _519  and  _520
REMARK  229  A    between atoms: _526  and  _528
REMARK  230  A    between atoms: _528  and  _529
REMARK  231  A    between atoms: _531  and  _533
REMARK  232  A    between atoms: _533  and  _534
REMARK  233  A    between atoms: _533  and  _536
REMARK  234  A    between atoms: _536  and  _537
REMARK  235  A    between atoms: _540  and  _542
REMARK  236  A    between atoms: _542  and  _543
REMARK  237  A    between atoms: _542  and  _545
REMARK  238  A    between atoms: _547  and  _549
REMARK  239  A    between atoms: _549  and  _550
REMARK  240  A    between atoms: _549  and  _552
REMARK  241  A    between atoms: _552  and  _553
REMARK  242  A    between atoms: _559  and  _561
REMARK  243  A    between atoms: _561  and  _562
REMARK  244  A    between atoms: _561  and  _564
REMARK  245  A    between atoms: _564  and  _565
REMARK  246  A    between atoms: _568  and  _570
REMARK  247  A    between atoms: _570  and  _571
REMARK  248  A    between atoms: _570  and  _573
REMARK  249  A    between atoms: _573  and  _574
REMARK  250  A    between atoms: _574  and  _575
REMARK  251  A    between atoms: _578  and  _580
REMARK  252  A    between atoms: _580  and  _581
REMARK  253  A    between atoms: _580  and  _583
REMARK  254  A    between atoms: _583  and  _584
REMARK  255  A    between atoms: _590  and  _592
REMARK  256  A    between atoms: _592  and  _593
REMARK  257  A    between atoms: _592  and  _595
REMARK  258  A    between atoms: _595  and  _596
REMARK                            x       y       z     vdW  Elec       q    Type
REMARK                         _______ _______ _______ _____ _____    ______ ____
ROOT
ATOM      1  O   HOH     1      19.069 -22.721  16.333  0.00  0.00    +0.000 OA
ENDROOT
TORSDOF 0
REMARK  Name = ../refined-set-2016/3d0e/3d0e_pocket.pdb
REMARK  258 active torsions:
REMARK  status: ('A' for Active; 'I' for Inactive)
REMARK    1  A    between atoms: _1  and  _3
REMARK    2  A    between atoms: _3  and  _4
REMARK    3  A    between atoms: _3  and  _6
REMARK    4  A    between atoms: _6  and  _7
REMARK    5  A    between atoms: _10  and  _12
REMARK    6  A    between atoms: _12  and  _13
REMARK    7  A    between atoms: _12  and  _15
REMARK    8  A    between atoms: _15  and  _16
REMARK    9  A    between atoms: _19  and  _21
REMARK   10  A    between atoms: _21  and  _22
REMARK   11  A    between atoms: _24  and  _26
REMARK   12  A    between atoms: _26  and  _27
REMARK   13  A    between atoms: _26  and  _29
REMARK   14  A    between atoms: _29  and  _30
REMARK   15  A    between atoms: _30  and  _31
REMARK   16  A    between atoms: _31  and  _32
REMARK   17  A    between atoms: _32  and  _33
REMARK   18  A    between atoms: _37  and  _39
REMARK   19  A    between atoms: _39  and  _40
REMARK   20  A    between atoms: _42  and  _44
REMARK   21  A    between atoms: _44  and  _45
REMARK   22  A    between atoms: _44  and  _47
REMARK   23  A    between atoms: _47  and  _48
REMARK   24  A    between atoms: _51  and  _53
REMARK   25  A    between atoms: _53  and  _54
REMARK   26  A    between atoms: _53  and  _56
REMARK   27  A    between atoms: _56  and  _57
REMARK   28  A    between atoms: _63  and  _65
REMARK   29  A    between atoms: _65  and  _66
REMARK   30  A    between atoms: _68  and  _70
REMARK   31  A    between atoms: _70  and  _71
REMARK   32  A    between atoms: _70  and  _73
REMARK   33  A    between atoms: _73  and  _74
REMARK   34  A    between atoms: _74  and  _75
REMARK   35  A    between atoms: _75  and  _76
REMARK   36  A    between atoms: _76  and  _77
REMARK   37  A    between atoms: _81  and  _83
REMARK   38  A    between atoms: _83  and  _84
REMARK   39  A    between atoms: _83  and  _86
REMARK   40  A    between atoms: _89  and  _91
REMARK   41  A    between atoms: _91  and  _92
REMARK   42  A    between atoms: _91  and  _94
REMARK   43  A    between atoms: _94  and  _95
REMARK   44  A    between atoms: _98  and  _100
REMARK   45  A    between atoms: _100  and  _101
REMARK   46  A    between atoms: _100  and  _103
REMARK   47  A    between atoms: _103  and  _104
REMARK   48  A    between atoms: _107  and  _109
REMARK   49  A    between atoms: _109  and  _110
REMARK   50  A    between atoms: _109  and  _112
REMARK   51  A    between atoms: _112  and  _113
REMARK   52  A    between atoms: _118  and  _119
REMARK   53  A    between atoms: _121  and  _123
REMARK   54  A    between atoms: _123  and  _124
REMARK   55  A    between atoms: _127  and  _129
REMARK   56  A    between atoms: _129  and  _130
REMARK   57  A    between atoms: _129  and  _132
REMARK   58  A    between atoms: _132  and  _133
REMARK   59  A    between atoms: _133  and  _134
REMARK   60  A    between atoms: _136  and  _138
REMARK   61  A    between atoms: _138  and  _139
REMARK   62  A    between atoms: _138  and  _141
REMARK   63  A    between atoms: _141  and  _142
REMARK   64  A    between atoms: _142  and  _143
REMARK   65  A    between atoms: _143  and  _144
REMARK   66  A    between atoms: _144  and  _145
REMARK   67  A    between atoms: _149  and  _151
REMARK   68  A    between atoms: _151  and  _152
REMARK   69  A    between atoms: _151  and  _154
REMARK   70  A    between atoms: _154  and  _155
REMARK   71  A    between atoms: _158  and  _160
REMARK   72  A    between atoms: _160  and  _161
REMARK   73  A    between atoms: _160  and  _163
REMARK   74  A    between atoms: _163  and  _164
REMARK   75  A    between atoms: _167  and  _169
REMARK   76  A    between atoms: _169  and  _170
REMARK   77  A    between atoms: _169  and  _172
REMARK   78  A    between atoms: _172  and  _173
REMARK   79  A    between atoms: _173  and  _174
REMARK   80  A    between atoms: _177  and  _179
REMARK   81  A    between atoms: _179  and  _180
REMARK   82  A    between atoms: _179  and  _182
REMARK   83  A    between atoms: _182  and  _183
REMARK   84  A    between atoms: _185  and  _187
REMARK   85  A    between atoms: _187  and  _188
REMARK   86  A    between atoms: _187  and  _190
REMARK   87  A    between atoms: _190  and  _191
REMARK   88  A    between atoms: _194  and  _196
REMARK   89  A    between atoms: _196  and  _197
REMARK   90  A    between atoms: _196  and  _199
REMARK   91  A    between atoms: _199  and  _200
REMARK   92  A    between atoms: _203  and  _205
REMARK   93  A    between atoms: _205  and  _206
REMARK   94  A    between atoms: _205  and  _208
REMARK   95  A    between atoms: _208  and  _209
REMARK   96  A    between atoms: _212  and  _214
REMARK   97  A    between atoms: _214  and  _215
REMARK   98  A    between atoms: _218  and  _220
REMARK   99  A    between atoms: _220  and  _221
REMARK  100  A    between atoms: _220  and  _223
REMARK  101  A    between atoms: _223  and  _224
REMARK  102  A    between atoms: _227  and  _229
REMARK  103  A    between atoms: _229  and  _230
REMARK  104  A    between atoms: _229  and  _232
REMARK  105  A    between atoms: _232  and  _233
REMARK  106  A    between atoms: _233  and  _234
REMARK  107  A    between atoms: _234  and  _235
REMARK  108  A    between atoms: _235  and  _236
REMARK  109  A    between atoms: _240  and  _242
REMARK  110  A    between atoms: _242  and  _243
REMARK  111  A    between atoms: _242  and  _245
REMARK  112  A    between atoms: _245  and  _246
REMARK  113  A    between atoms: _251  and  _252
REMARK  114  A    between atoms: _254  and  _256
REMARK  115  A    between atoms: _256  and  _257
REMARK  116  A    between atoms: _260  and  _262
REMARK  117  A    between atoms: _262  and  _263
REMARK  118  A    between atoms: _262  and  _265
REMARK  119  A    between atoms: _267  and  _269
REMARK  120  A    between atoms: _269  and  _270
REMARK  121  A    between atoms: _269  and  _272
REMARK  122  A    between atoms: _272  and  _273
REMARK  123  A    between atoms: _279  and  _281
REMARK  124  A    between atoms: _281  and  _282
REMARK  125  A    between atoms: _281  and  _284
REMARK  126  A    between atoms: _287  and  _289
REMARK  127  A    between atoms: _289  and  _290
REMARK  128  A    between atoms: _289  and  _292
REMARK  129  A    between atoms: _292  and  _293
REMARK  130  A    between atoms: _293  and  _294
REMARK  131  A    between atoms: _296  and  _298
REMARK  132  A    between atoms: _298  and  _299
REMARK  133  A    between atoms: _298  and  _301
REMARK  134  A    between atoms: _301  and  _302
REMARK  135  A    between atoms: _302  and  _303
REMARK  136  A    between atoms: _306  and  _308
REMARK  137  A    between atoms: _308  and  _309
REMARK  138  A    between atoms: _308  and  _311
REMARK  139  A    between atoms: _311  and  _312
REMARK  140  A    between atoms: _317  and  _318
REMARK  141  A    between atoms: _320  and  _322
REMARK  142  A    between atoms: _322  and  _323
REMARK  143  A    between atoms: _326  and  _328
REMARK  144  A    between atoms: _328  and  _329
REMARK  145  A    between atoms: _328  and  _331
REMARK  146  A    between atoms: _331  and  _332
REMARK  147  A    between atoms: _337  and  _339
REMARK  148  A    between atoms: _339  and  _340
REMARK  149  A    between atoms: _342  and  _344
REMARK  150  A    between atoms: _344  and  _345
REMARK  151  A    between atoms: _347  and  _349
REMARK  152  A    between atoms: _349  and  _350
REMARK  153  A    between atoms: _349  and  _352
REMARK  154  A    between atoms: _352  and  _353
REMARK  155  A    between atoms: _353  and  _354
REMARK  156  A    between atoms: _357  and  _359
REMARK  157  A    between atoms: _359  and  _360
REMARK  158  A    between atoms: _359  and  _362
REMARK  159  A    between atoms: _362  and  _363
REMARK  160  A    between atoms: _369  and  _371
REMARK  161  A    between atoms: _371  and  _372
REMARK  162  A    between atoms: _371  and  _374
REMARK  163  A    between atoms: _374  and  _375
REMARK  164  A    between atoms: _381  and  _383
REMARK  165  A    between atoms: _383  and  _384
REMARK  166  A    between atoms: _383  and  _386
REMARK  167  A    between atoms: _386  and  _387
REMARK  168  A    between atoms: _392  and  _393
REMARK  169  A    between atoms: _395  and  _397
REMARK  170  A    between atoms: _397  and  _398
REMARK  171  A    between atoms: _397  and  _400
REMARK  172  A    between atoms: _400  and  _401
REMARK  173  A    between atoms: _404  and  _406
REMARK  174  A    between atoms: _406  and  _407
REMARK  175  A    between atoms: _406  and  _409
REMARK  176  A    between atoms: _409  and  _410
REMARK  177  A    between atoms: _410  and  _411
REMARK  178  A    between atoms: _411  and  _412
REMARK  179  A    between atoms: _412  and  _413
REMARK  180  A    between atoms: _417  and  _419
REMARK  181  A    between atoms: _419  and  _420
REMARK  182  A    between atoms: _419  and  _422
REMARK  183  A    between atoms: _422  and  _423
REMARK  184  A    between atoms: _426  and  _428
REMARK  185  A    between atoms: _428  and  _429
REMARK  186  A    between atoms: _428  and  _431
REMARK  187  A    between atoms: _431  and  _432
REMARK  188  A    between atoms: _432  and  _433
REMARK  189  A    between atoms: _436  and  _438
REMARK  190  A    between atoms: _438  and  _439
REMARK  191  A    between atoms: _438  and  _441
REMARK  192  A    between atoms: _441  and  _442
REMARK  193  A    between atoms: _447  and  _449
REMARK  194  A    between atoms: _449  and  _450
REMARK  195  A    between atoms: _449  and  _452
REMARK  196  A    between atoms: _452  and  _453
REMARK  197  A    between atoms: _456  and  _458
REMARK  198  A    between atoms: _458  and  _459
REMARK  199  A    between atoms: _458  and  _461
REMARK  200  A    between atoms: _461  and  _462
REMARK  201  A    between atoms: _462  and  _463
REMARK  202  A    between atoms: _465  and  _467
REMARK  203  A    between atoms: _467  and  _468
REMARK  204  A    between atoms: _467  and  _470
REMARK  205  A    between atoms: _470  and  _471
REMARK  206  A    between atoms: _474  and  _476
REMARK  207  A    between atoms: _476  and  _477
REMARK  208  A    between atoms: _476  and  _479
REMARK  209  A    between atoms: _479  and  _480
REMARK  210  A    between atoms: _480  and  _481
REMARK  211  A    between atoms: _481  and  _482
REMARK  212  A    between atoms: _482  and  _483
REMARK  213  A    between atoms: _487  and  _489
REMARK  214  A    between atoms: _489  and  _490
REMARK  215  A    between atoms: _489  and  _492
REMARK  216  A    between atoms: _492  and  _493
REMARK  217  A    between atoms: _496  and  _498
REMARK  218  A    between atoms: _498  and  _499
REMARK  219  A    between atoms: _498  and  _501
REMARK  220  A    between atoms: _501  and  _502
REMARK  221  A    between atoms: _505  and  _507
REMARK  222  A    between atoms: _507  and  _508
REMARK  223  A    between atoms: _507  and  _510
REMARK  224  A    between atoms: _510  and  _511
REMARK  225  A    between atoms: _514  and  _516
REMARK  226  A    between atoms: _516  and  _517
REMARK  227  A    between atoms: _516  and  _519
REMARK  228  A    between atoms: _519  and  _520
REMARK  229  A    between atoms: _526  and  _528
REMARK  230  A    between atoms: _528  and  _529
REMARK  231  A    between atoms: _531  and  _533
REMARK  232  A    between atoms: _533  and  _534
REMARK  233  A    between atoms: _533  and  _536
REMARK  234  A    between atoms: _536  and  _537
REMARK  235  A    between atoms: _540  and  _542
REMARK  236  A    between atoms: _542  and  _543
REMARK  237  A    between atoms: _542  and  _545
REMARK  238  A    between atoms: _547  and  _549
REMARK  239  A    between atoms: _549  and  _550
REMARK  240  A    between atoms: _549  and  _552
REMARK  241  A    between atoms: _552  and  _553
REMARK  242  A    between atoms: _559  and  _561
REMARK  243  A    between atoms: _561  and  _562
REMARK  244  A    between atoms: _561  and  _564
REMARK  245  A    between atoms: _564  and  _565
REMARK  246  A    between atoms: _568  and  _570
REMARK  247  A    between atoms: _570  and  _571
REMARK  248  A    between atoms: _570  and  _573
REMARK  249  A    between atoms: _573  and  _574
REMARK  250  A    between atoms: _574  and  _575
REMARK  251  A    between atoms: _578  and  _580
REMARK  252  A    between atoms: _580  and  _581
REMARK  253  A    between atoms: _580  and  _583
REMARK  254  A    between atoms: _583  and  _584
REMARK  255  A    between atoms: _590  and  _592
REMARK  256  A    between atoms: _592  and  _593
REMARK  257  A    between atoms: _592  and  _595
REMARK  258  A    between atoms: _595  and  _596
REMARK                            x       y       z     vdW  Elec       q    Type
REMARK                         _______ _______ _______ _____ _____    ______ ____
ROOT
ATOM      1  O   HOH     1      19.669 -22.366   0.220  0.00  0.00    +0.000 OA
ENDROOT
TORSDOF 0
REMARK  Name = ../refined-set-2016/3d0e/3d0e_pocket.pdb
REMARK  258 active torsions:
REMARK  status: ('A' for Active; 'I' for Inactive)
REMARK    1  A    between atoms: _1  and  _3
REMARK    2  A    between atoms: _3  and  _4
REMARK    3  A    between atoms: _3  and  _6
REMARK    4  A    between atoms: _6  and  _7
REMARK    5  A    between atoms: _10  and  _12
REMARK    6  A    between atoms: _12  and  _13
REMARK    7  A    between atoms: _12  and  _15
REMARK    8  A    between atoms: _15  and  _16
REMARK    9  A    between atoms: _19  and  _21
REMARK   10  A    between atoms: _21  and  _22
REMARK   11  A    between atoms: _24  and  _26
REMARK   12  A    between atoms: _26  and  _27
REMARK   13  A    between atoms: _26  and  _29
REMARK   14  A    between atoms: _29  and  _30
REMARK   15  A    between atoms: _30  and  _31
REMARK   16  A    between atoms: _31  and  _32
REMARK   17  A    between atoms: _32  and  _33
REMARK   18  A    between atoms: _37  and  _39
REMARK   19  A    between atoms: _39  and  _40
REMARK   20  A    between atoms: _42  and  _44
REMARK   21  A    between atoms: _44  and  _45
REMARK   22  A    between atoms: _44  and  _47
REMARK   23  A    between atoms: _47  and  _48
REMARK   24  A    between atoms: _51  and  _53
REMARK   25  A    between atoms: _53  and  _54
REMARK   26  A    between atoms: _53  and  _56
REMARK   27  A    between atoms: _56  and  _57
REMARK   28  A    between atoms: _63  and  _65
REMARK   29  A    between atoms: _65  and  _66
REMARK   30  A    between atoms: _68  and  _70
REMARK   31  A    between atoms: _70  and  _71
REMARK   32  A    between atoms: _70  and  _73
REMARK   33  A    between atoms: _73  and  _74
REMARK   34  A    between atoms: _74  and  _75
REMARK   35  A    between atoms: _75  and  _76
REMARK   36  A    between atoms: _76  and  _77
REMARK   37  A    between atoms: _81  and  _83
REMARK   38  A    between atoms: _83  and  _84
REMARK   39  A    between atoms: _83  and  _86
REMARK   40  A    between atoms: _89  and  _91
REMARK   41  A    between atoms: _91  and  _92
REMARK   42  A    between atoms: _91  and  _94
REMARK   43  A    between atoms: _94  and  _95
REMARK   44  A    between atoms: _98  and  _100
REMARK   45  A    between atoms: _100  and  _101
REMARK   46  A    between atoms: _100  and  _103
REMARK   47  A    between atoms: _103  and  _104
REMARK   48  A    between atoms: _107  and  _109
REMARK   49  A    between atoms: _109  and  _110
REMARK   50  A    between atoms: _109  and  _112
REMARK   51  A    between atoms: _112  and  _113
REMARK   52  A    between atoms: _118  and  _119
REMARK   53  A    between atoms: _121  and  _123
REMARK   54  A    between atoms: _123  and  _124
REMARK   55  A    between atoms: _127  and  _129
REMARK   56  A    between atoms: _129  and  _130
REMARK   57  A    between atoms: _129  and  _132
REMARK   58  A    between atoms: _132  and  _133
REMARK   59  A    between atoms: _133  and  _134
REMARK   60  A    between atoms: _136  and  _138
REMARK   61  A    between atoms: _138  and  _139
REMARK   62  A    between atoms: _138  and  _141
REMARK   63  A    between atoms: _141  and  _142
REMARK   64  A    between atoms: _142  and  _143
REMARK   65  A    between atoms: _143  and  _144
REMARK   66  A    between atoms: _144  and  _145
REMARK   67  A    between atoms: _149  and  _151
REMARK   68  A    between atoms: _151  and  _152
REMARK   69  A    between atoms: _151  and  _154
REMARK   70  A    between atoms: _154  and  _155
REMARK   71  A    between atoms: _158  and  _160
REMARK   72  A    between atoms: _160  and  _161
REMARK   73  A    between atoms: _160  and  _163
REMARK   74  A    between atoms: _163  and  _164
REMARK   75  A    between atoms: _167  and  _169
REMARK   76  A    between atoms: _169  and  _170
REMARK   77  A    between atoms: _169  and  _172
REMARK   78  A    between atoms: _172  and  _173
REMARK   79  A    between atoms: _173  and  _174
REMARK   80  A    between atoms: _177  and  _179
REMARK   81  A    between atoms: _179  and  _180
REMARK   82  A    between atoms: _179  and  _182
REMARK   83  A    between atoms: _182  and  _183
REMARK   84  A    between atoms: _185  and  _187
REMARK   85  A    between atoms: _187  and  _188
REMARK   86  A    between atoms: _187  and  _190
REMARK   87  A    between atoms: _190  and  _191
REMARK   88  A    between atoms: _194  and  _196
REMARK   89  A    between atoms: _196  and  _197
REMARK   90  A    between atoms: _196  and  _199
REMARK   91  A    between atoms: _199  and  _200
REMARK   92  A    between atoms: _203  and  _205
REMARK   93  A    between atoms: _205  and  _206
REMARK   94  A    between atoms: _205  and  _208
REMARK   95  A    between atoms: _208  and  _209
REMARK   96  A    between atoms: _212  and  _214
REMARK   97  A    between atoms: _214  and  _215
REMARK   98  A    between atoms: _218  and  _220
REMARK   99  A    between atoms: _220  and  _221
REMARK  100  A    between atoms: _220  and  _223
REMARK  101  A    between atoms: _223  and  _224
REMARK  102  A    between atoms: _227  and  _229
REMARK  103  A    between atoms: _229  and  _230
REMARK  104  A    between atoms: _229  and  _232
REMARK  105  A    between atoms: _232  and  _233
REMARK  106  A    between atoms: _233  and  _234
REMARK  107  A    between atoms: _234  and  _235
REMARK  108  A    between atoms: _235  and  _236
REMARK  109  A    between atoms: _240  and  _242
REMARK  110  A    between atoms: _242  and  _243
REMARK  111  A    between atoms: _242  and  _245
REMARK  112  A    between atoms: _245  and  _246
REMARK  113  A    between atoms: _251  and  _252
REMARK  114  A    between atoms: _254  and  _256
REMARK  115  A    between atoms: _256  and  _257
REMARK  116  A    between atoms: _260  and  _262
REMARK  117  A    between atoms: _262  and  _263
REMARK  118  A    between atoms: _262  and  _265
REMARK  119  A    between atoms: _267  and  _269
REMARK  120  A    between atoms: _269  and  _270
REMARK  121  A    between atoms: _269  and  _272
REMARK  122  A    between atoms: _272  and  _273
REMARK  123  A    between atoms: _279  and  _281
REMARK  124  A    between atoms: _281  and  _282
REMARK  125  A    between atoms: _281  and  _284
REMARK  126  A    between atoms: _287  and  _289
REMARK  127  A    between atoms: _289  and  _290
REMARK  128  A    between atoms: _289  and  _292
REMARK  129  A    between atoms: _292  and  _293
REMARK  130  A    between atoms: _293  and  _294
REMARK  131  A    between atoms: _296  and  _298
REMARK  132  A    between atoms: _298  and  _299
REMARK  133  A    between atoms: _298  and  _301
REMARK  134  A    between atoms: _301  and  _302
REMARK  135  A    between atoms: _302  and  _303
REMARK  136  A    between atoms: _306  and  _308
REMARK  137  A    between atoms: _308  and  _309
REMARK  138  A    between atoms: _308  and  _311
REMARK  139  A    between atoms: _311  and  _312
REMARK  140  A    between atoms: _317  and  _318
REMARK  141  A    between atoms: _320  and  _322
REMARK  142  A    between atoms: _322  and  _323
REMARK  143  A    between atoms: _326  and  _328
REMARK  144  A    between atoms: _328  and  _329
REMARK  145  A    between atoms: _328  and  _331
REMARK  146  A    between atoms: _331  and  _332
REMARK  147  A    between atoms: _337  and  _339
REMARK  148  A    between atoms: _339  and  _340
REMARK  149  A    between atoms: _342  and  _344
REMARK  150  A    between atoms: _344  and  _345
REMARK  151  A    between atoms: _347  and  _349
REMARK  152  A    between atoms: _349  and  _350
REMARK  153  A    between atoms: _349  and  _352
REMARK  154  A    between atoms: _352  and  _353
REMARK  155  A    between atoms: _353  and  _354
REMARK  156  A    between atoms: _357  and  _359
REMARK  157  A    between atoms: _359  and  _360
REMARK  158  A    between atoms: _359  and  _362
REMARK  159  A    between atoms: _362  and  _363
REMARK  160  A    between atoms: _369  and  _371
REMARK  161  A    between atoms: _371  and  _372
REMARK  162  A    between atoms: _371  and  _374
REMARK  163  A    between atoms: _374  and  _375
REMARK  164  A    between atoms: _381  and  _383
REMARK  165  A    between atoms: _383  and  _384
REMARK  166  A    between atoms: _383  and  _386
REMARK  167  A    between atoms: _386  and  _387
REMARK  168  A    between atoms: _392  and  _393
REMARK  169  A    between atoms: _395  and  _397
REMARK  170  A    between atoms: _397  and  _398
REMARK  171  A    between atoms: _397  and  _400
REMARK  172  A    between atoms: _400  and  _401
REMARK  173  A    between atoms: _404  and  _406
REMARK  174  A    between atoms: _406  and  _407
REMARK  175  A    between atoms: _406  and  _409
REMARK  176  A    between atoms: _409  and  _410
REMARK  177  A    between atoms: _410  and  _411
REMARK  178  A    between atoms: _411  and  _412
REMARK  179  A    between atoms: _412  and  _413
REMARK  180  A    between atoms: _417  and  _419
REMARK  181  A    between atoms: _419  and  _420
REMARK  182  A    between atoms: _419  and  _422
REMARK  183  A    between atoms: _422  and  _423
REMARK  184  A    between atoms: _426  and  _428
REMARK  185  A    between atoms: _428  and  _429
REMARK  186  A    between atoms: _428  and  _431
REMARK  187  A    between atoms: _431  and  _432
REMARK  188  A    between atoms: _432  and  _433
REMARK  189  A    between atoms: _436  and  _438
REMARK  190  A    between atoms: _438  and  _439
REMARK  191  A    between atoms: _438  and  _441
REMARK  192  A    between atoms: _441  and  _442
REMARK  193  A    between atoms: _447  and  _449
REMARK  194  A    between atoms: _449  and  _450
REMARK  195  A    between atoms: _449  and  _452
REMARK  196  A    between atoms: _452  and  _453
REMARK  197  A    between atoms: _456  and  _458
REMARK  198  A    between atoms: _458  and  _459
REMARK  199  A    between atoms: _458  and  _461
REMARK  200  A    between atoms: _461  and  _462
REMARK  201  A    between atoms: _462  and  _463
REMARK  202  A    between atoms: _465  and  _467
REMARK  203  A    between atoms: _467  and  _468
REMARK  204  A    between atoms: _467  and  _470
REMARK  205  A    between atoms: _470  and  _471
REMARK  206  A    between atoms: _474  and  _476
REMARK  207  A    between atoms: _476  and  _477
REMARK  208  A    between atoms: _476  and  _479
REMARK  209  A    between atoms: _479  and  _480
REMARK  210  A    between atoms: _480  and  _481
REMARK  211  A    between atoms: _481  and  _482
REMARK  212  A    between atoms: _482  and  _483
REMARK  213  A    between atoms: _487  and  _489
REMARK  214  A    between atoms: _489  and  _490
REMARK  215  A    between atoms: _489  and  _492
REMARK  216  A    between atoms: _492  and  _493
REMARK  217  A    between atoms: _496  and  _498
REMARK  218  A    between atoms: _498  and  _499
REMARK  219  A    between atoms: _498  and  _501
REMARK  220  A    between atoms: _501  and  _502
REMARK  221  A    between atoms: _505  and  _507
REMARK  222  A    between atoms: _507  and  _508
REMARK  223  A    between atoms: _507  and  _510
REMARK  224  A    between atoms: _510  and  _511
REMARK  225  A    between atoms: _514  and  _516
REMARK  226  A    between atoms: _516  and  _517
REMARK  227  A    between atoms: _516  and  _519
REMARK  228  A    between atoms: _519  and  _520
REMARK  229  A    between atoms: _526  and  _528
REMARK  230  A    between atoms: _528  and  _529
REMARK  231  A    between atoms: _531  and  _533
REMARK  232  A    between atoms: _533  and  _534
REMARK  233  A    between atoms: _533  and  _536
REMARK  234  A    between atoms: _536  and  _537
REMARK  235  A    between atoms: _540  and  _542
REMARK  236  A    between atoms: _542  and  _543
REMARK  237  A    between atoms: _542  and  _545
REMARK  238  A    between atoms: _547  and  _549
REMARK  239  A    between atoms: _549  and  _550
REMARK  240  A    between atoms: _549  and  _552
REMARK  241  A    between atoms: _552  and  _553
REMARK  242  A    between atoms: _559  and  _561
REMARK  243  A    between atoms: _561  and  _562
REMARK  244  A    between atoms: _561  and  _564
REMARK  245  A    between atoms: _564  and  _565
REMARK  246  A    between atoms: _568  and  _570
REMARK  247  A    between atoms: _570  and  _571
REMARK  248  A    between atoms: _570  and  _573
REMARK  249  A    between atoms: _573  and  _574
REMARK  250  A    between atoms: _574  and  _575
REMARK  251  A    between atoms: _578  and  _580
REMARK  252  A    between atoms: _580  and  _581
REMARK  253  A    between atoms: _580  and  _583
REMARK  254  A    between atoms: _583  and  _584
REMARK  255  A    between atoms: _590  and  _592
REMARK  256  A    between atoms: _592  and  _593
REMARK  257  A    between atoms: _592  and  _595
REMARK  258  A    between atoms: _595  and  _596
REMARK                            x       y       z     vdW  Elec       q    Type
REMARK                         _______ _______ _______ _____ _____    ______ ____
ROOT
ATOM      1  O   HOH     1      20.994 -22.149  14.577  0.00  0.00    +0.000 OA
ENDROOT
TORSDOF 0
REMARK  Name = ../refined-set-2016/3d0e/3d0e_pocket.pdb
REMARK  258 active torsions:
REMARK  status: ('A' for Active; 'I' for Inactive)
REMARK    1  A    between atoms: _1  and  _3
REMARK    2  A    between atoms: _3  and  _4
REMARK    3  A    between atoms: _3  and  _6
REMARK    4  A    between atoms: _6  and  _7
REMARK    5  A    between atoms: _10  and  _12
REMARK    6  A    between atoms: _12  and  _13
REMARK    7  A    between atoms: _12  and  _15
REMARK    8  A    between atoms: _15  and  _16
REMARK    9  A    between atoms: _19  and  _21
REMARK   10  A    between atoms: _21  and  _22
REMARK   11  A    between atoms: _24  and  _26
REMARK   12  A    between atoms: _26  and  _27
REMARK   13  A    between atoms: _26  and  _29
REMARK   14  A    between atoms: _29  and  _30
REMARK   15  A    between atoms: _30  and  _31
REMARK   16  A    between atoms: _31  and  _32
REMARK   17  A    between atoms: _32  and  _33
REMARK   18  A    between atoms: _37  and  _39
REMARK   19  A    between atoms: _39  and  _40
REMARK   20  A    between atoms: _42  and  _44
REMARK   21  A    between atoms: _44  and  _45
REMARK   22  A    between atoms: _44  and  _47
REMARK   23  A    between atoms: _47  and  _48
REMARK   24  A    between atoms: _51  and  _53
REMARK   25  A    between atoms: _53  and  _54
REMARK   26  A    between atoms: _53  and  _56
REMARK   27  A    between atoms: _56  and  _57
REMARK   28  A    between atoms: _63  and  _65
REMARK   29  A    between atoms: _65  and  _66
REMARK   30  A    between atoms: _68  and  _70
REMARK   31  A    between atoms: _70  and  _71
REMARK   32  A    between atoms: _70  and  _73
REMARK   33  A    between atoms: _73  and  _74
REMARK   34  A    between atoms: _74  and  _75
REMARK   35  A    between atoms: _75  and  _76
REMARK   36  A    between atoms: _76  and  _77
REMARK   37  A    between atoms: _81  and  _83
REMARK   38  A    between atoms: _83  and  _84
REMARK   39  A    between atoms: _83  and  _86
REMARK   40  A    between atoms: _89  and  _91
REMARK   41  A    between atoms: _91  and  _92
REMARK   42  A    between atoms: _91  and  _94
REMARK   43  A    between atoms: _94  and  _95
REMARK   44  A    between atoms: _98  and  _100
REMARK   45  A    between atoms: _100  and  _101
REMARK   46  A    between atoms: _100  and  _103
REMARK   47  A    between atoms: _103  and  _104
REMARK   48  A    between atoms: _107  and  _109
REMARK   49  A    between atoms: _109  and  _110
REMARK   50  A    between atoms: _109  and  _112
REMARK   51  A    between atoms: _112  and  _113
REMARK   52  A    between atoms: _118  and  _119
REMARK   53  A    between atoms: _121  and  _123
REMARK   54  A    between atoms: _123  and  _124
REMARK   55  A    between atoms: _127  and  _129
REMARK   56  A    between atoms: _129  and  _130
REMARK   57  A    between atoms: _129  and  _132
REMARK   58  A    between atoms: _132  and  _133
REMARK   59  A    between atoms: _133  and  _134
REMARK   60  A    between atoms: _136  and  _138
REMARK   61  A    between atoms: _138  and  _139
REMARK   62  A    between atoms: _138  and  _141
REMARK   63  A    between atoms: _141  and  _142
REMARK   64  A    between atoms: _142  and  _143
REMARK   65  A    between atoms: _143  and  _144
REMARK   66  A    between atoms: _144  and  _145
REMARK   67  A    between atoms: _149  and  _151
REMARK   68  A    between atoms: _151  and  _152
REMARK   69  A    between atoms: _151  and  _154
REMARK   70  A    between atoms: _154  and  _155
REMARK   71  A    between atoms: _158  and  _160
REMARK   72  A    between atoms: _160  and  _161
REMARK   73  A    between atoms: _160  and  _163
REMARK   74  A    between atoms: _163  and  _164
REMARK   75  A    between atoms: _167  and  _169
REMARK   76  A    between atoms: _169  and  _170
REMARK   77  A    between atoms: _169  and  _172
REMARK   78  A    between atoms: _172  and  _173
REMARK   79  A    between atoms: _173  and  _174
REMARK   80  A    between atoms: _177  and  _179
REMARK   81  A    between atoms: _179  and  _180
REMARK   82  A    between atoms: _179  and  _182
REMARK   83  A    between atoms: _182  and  _183
REMARK   84  A    between atoms: _185  and  _187
REMARK   85  A    between atoms: _187  and  _188
REMARK   86  A    between atoms: _187  and  _190
REMARK   87  A    between atoms: _190  and  _191
REMARK   88  A    between atoms: _194  and  _196
REMARK   89  A    between atoms: _196  and  _197
REMARK   90  A    between atoms: _196  and  _199
REMARK   91  A    between atoms: _199  and  _200
REMARK   92  A    between atoms: _203  and  _205
REMARK   93  A    between atoms: _205  and  _206
REMARK   94  A    between atoms: _205  and  _208
REMARK   95  A    between atoms: _208  and  _209
REMARK   96  A    between atoms: _212  and  _214
REMARK   97  A    between atoms: _214  and  _215
REMARK   98  A    between atoms: _218  and  _220
REMARK   99  A    between atoms: _220  and  _221
REMARK  100  A    between atoms: _220  and  _223
REMARK  101  A    between atoms: _223  and  _224
REMARK  102  A    between atoms: _227  and  _229
REMARK  103  A    between atoms: _229  and  _230
REMARK  104  A    between atoms: _229  and  _232
REMARK  105  A    between atoms: _232  and  _233
REMARK  106  A    between atoms: _233  and  _234
REMARK  107  A    between atoms: _234  and  _235
REMARK  108  A    between atoms: _235  and  _236
REMARK  109  A    between atoms: _240  and  _242
REMARK  110  A    between atoms: _242  and  _243
REMARK  111  A    between atoms: _242  and  _245
REMARK  112  A    between atoms: _245  and  _246
REMARK  113  A    between atoms: _251  and  _252
REMARK  114  A    between atoms: _254  and  _256
REMARK  115  A    between atoms: _256  and  _257
REMARK  116  A    between atoms: _260  and  _262
REMARK  117  A    between atoms: _262  and  _263
REMARK  118  A    between atoms: _262  and  _265
REMARK  119  A    between atoms: _267  and  _269
REMARK  120  A    between atoms: _269  and  _270
REMARK  121  A    between atoms: _269  and  _272
REMARK  122  A    between atoms: _272  and  _273
REMARK  123  A    between atoms: _279  and  _281
REMARK  124  A    between atoms: _281  and  _282
REMARK  125  A    between atoms: _281  and  _284
REMARK  126  A    between atoms: _287  and  _289
REMARK  127  A    between atoms: _289  and  _290
REMARK  128  A    between atoms: _289  and  _292
REMARK  129  A    between atoms: _292  and  _293
REMARK  130  A    between atoms: _293  and  _294
REMARK  131  A    between atoms: _296  and  _298
REMARK  132  A    between atoms: _298  and  _299
REMARK  133  A    between atoms: _298  and  _301
REMARK  134  A    between atoms: _301  and  _302
REMARK  135  A    between atoms: _302  and  _303
REMARK  136  A    between atoms: _306  and  _308
REMARK  137  A    between atoms: _308  and  _309
REMARK  138  A    between atoms: _308  and  _311
REMARK  139  A    between atoms: _311  and  _312
REMARK  140  A    between atoms: _317  and  _318
REMARK  141  A    between atoms: _320  and  _322
REMARK  142  A    between atoms: _322  and  _323
REMARK  143  A    between atoms: _326  and  _328
REMARK  144  A    between atoms: _328  and  _329
REMARK  145  A    between atoms: _328  and  _331
REMARK  146  A    between atoms: _331  and  _332
REMARK  147  A    between atoms: _337  and  _339
REMARK  148  A    between atoms: _339  and  _340
REMARK  149  A    between atoms: _342  and  _344
REMARK  150  A    between atoms: _344  and  _345
REMARK  151  A    between atoms: _347  and  _349
REMARK  152  A    between atoms: _349  and  _350
REMARK  153  A    between atoms: _349  and  _352
REMARK  154  A    between atoms: _352  and  _353
REMARK  155  A    between atoms: _353  and  _354
REMARK  156  A    between atoms: _357  and  _359
REMARK  157  A    between atoms: _359  and  _360
REMARK  158  A    between atoms: _359  and  _362
REMARK  159  A    between atoms: _362  and  _363
REMARK  160  A    between atoms: _369  and  _371
REMARK  161  A    between atoms: _371  and  _372
REMARK  162  A    between atoms: _371  and  _374
REMARK  163  A    between atoms: _374  and  _375
REMARK  164  A    between atoms: _381  and  _383
REMARK  165  A    between atoms: _383  and  _384
REMARK  166  A    between atoms: _383  and  _386
REMARK  167  A    between atoms: _386  and  _387
REMARK  168  A    between atoms: _392  and  _393
REMARK  169  A    between atoms: _395  and  _397
REMARK  170  A    between atoms: _397  and  _398
REMARK  171  A    between atoms: _397  and  _400
REMARK  172  A    between atoms: _400  and  _401
REMARK  173  A    between atoms: _404  and  _406
REMARK  174  A    between atoms: _406  and  _407
REMARK  175  A    between atoms: _406  and  _409
REMARK  176  A    between atoms: _409  and  _410
REMARK  177  A    between atoms: _410  and  _411
REMARK  178  A    between atoms: _411  and  _412
REMARK  179  A    between atoms: _412  and  _413
REMARK  180  A    between atoms: _417  and  _419
REMARK  181  A    between atoms: _419  and  _420
REMARK  182  A    between atoms: _419  and  _422
REMARK  183  A    between atoms: _422  and  _423
REMARK  184  A    between atoms: _426  and  _428
REMARK  185  A    between atoms: _428  and  _429
REMARK  186  A    between atoms: _428  and  _431
REMARK  187  A    between atoms: _431  and  _432
REMARK  188  A    between atoms: _432  and  _433
REMARK  189  A    between atoms: _436  and  _438
REMARK  190  A    between atoms: _438  and  _439
REMARK  191  A    between atoms: _438  and  _441
REMARK  192  A    between atoms: _441  and  _442
REMARK  193  A    between atoms: _447  and  _449
REMARK  194  A    between atoms: _449  and  _450
REMARK  195  A    between atoms: _449  and  _452
REMARK  196  A    between atoms: _452  and  _453
REMARK  197  A    between atoms: _456  and  _458
REMARK  198  A    between atoms: _458  and  _459
REMARK  199  A    between atoms: _458  and  _461
REMARK  200  A    between atoms: _461  and  _462
REMARK  201  A    between atoms: _462  and  _463
REMARK  202  A    between atoms: _465  and  _467
REMARK  203  A    between atoms: _467  and  _468
REMARK  204  A    between atoms: _467  and  _470
REMARK  205  A    between atoms: _470  and  _471
REMARK  206  A    between atoms: _474  and  _476
REMARK  207  A    between atoms: _476  and  _477
REMARK  208  A    between atoms: _476  and  _479
REMARK  209  A    between atoms: _479  and  _480
REMARK  210  A    between atoms: _480  and  _481
REMARK  211  A    between atoms: _481  and  _482
REMARK  212  A    between atoms: _482  and  _483
REMARK  213  A    between atoms: _487  and  _489
REMARK  214  A    between atoms: _489  and  _490
REMARK  215  A    between atoms: _489  and  _492
REMARK  216  A    between atoms: _492  and  _493
REMARK  217  A    between atoms: _496  and  _498
REMARK  218  A    between atoms: _498  and  _499
REMARK  219  A    between atoms: _498  and  _501
REMARK  220  A    between atoms: _501  and  _502
REMARK  221  A    between atoms: _505  and  _507
REMARK  222  A    between atoms: _507  and  _508
REMARK  223  A    between atoms: _507  and  _510
REMARK  224  A    between atoms: _510  and  _511
REMARK  225  A    between atoms: _514  and  _516
REMARK  226  A    between atoms: _516  and  _517
REMARK  227  A    between atoms: _516  and  _519
REMARK  228  A    between atoms: _519  and  _520
REMARK  229  A    between atoms: _526  and  _528
REMARK  230  A    between atoms: _528  and  _529
REMARK  231  A    between atoms: _531  and  _533
REMARK  232  A    between atoms: _533  and  _534
REMARK  233  A    between atoms: _533  and  _536
REMARK  234  A    between atoms: _536  and  _537
REMARK  235  A    between atoms: _540  and  _542
REMARK  236  A    between atoms: _542  and  _543
REMARK  237  A    between atoms: _542  and  _545
REMARK  238  A    between atoms: _547  and  _549
REMARK  239  A    between atoms: _549  and  _550
REMARK  240  A    between atoms: _549  and  _552
REMARK  241  A    between atoms: _552  and  _553
REMARK  242  A    between atoms: _559  and  _561
REMARK  243  A    between atoms: _561  and  _562
REMARK  244  A    between atoms: _561  and  _564
REMARK  245  A    between atoms: _564  and  _565
REMARK  246  A    between atoms: _568  and  _570
REMARK  247  A    between atoms: _570  and  _571
REMARK  248  A    between atoms: _570  and  _573
REMARK  249  A    between atoms: _573  and  _574
REMARK  250  A    between atoms: _574  and  _575
REMARK  251  A    between atoms: _578  and  _580
REMARK  252  A    between atoms: _580  and  _581
REMARK  253  A    between atoms: _580  and  _583
REMARK  254  A    between atoms: _583  and  _584
REMARK  255  A    between atoms: _590  and  _592
REMARK  256  A    between atoms: _592  and  _593
REMARK  257  A    between atoms: _592  and  _595
REMARK  258  A    between atoms: _595  and  _596
REMARK                            x       y       z     vdW  Elec       q    Type
REMARK                         _______ _______ _______ _____ _____    ______ ____
ROOT
ATOM      1  O   HOH     1      19.207 -25.459   3.028  0.00  0.00    +0.000 OA
ENDROOT
TORSDOF 0
REMARK  Name = ../refined-set-2016/3d0e/3d0e_pocket.pdb
REMARK  258 active torsions:
REMARK  status: ('A' for Active; 'I' for Inactive)
REMARK    1  A    between atoms: _1  and  _3
REMARK    2  A    between atoms: _3  and  _4
REMARK    3  A    between atoms: _3  and  _6
REMARK    4  A    between atoms: _6  and  _7
REMARK    5  A    between atoms: _10  and  _12
REMARK    6  A    between atoms: _12  and  _13
REMARK    7  A    between atoms: _12  and  _15
REMARK    8  A    between atoms: _15  and  _16
REMARK    9  A    between atoms: _19  and  _21
REMARK   10  A    between atoms: _21  and  _22
REMARK   11  A    between atoms: _24  and  _26
REMARK   12  A    between atoms: _26  and  _27
REMARK   13  A    between atoms: _26  and  _29
REMARK   14  A    between atoms: _29  and  _30
REMARK   15  A    between atoms: _30  and  _31
REMARK   16  A    between atoms: _31  and  _32
REMARK   17  A    between atoms: _32  and  _33
REMARK   18  A    between atoms: _37  and  _39
REMARK   19  A    between atoms: _39  and  _40
REMARK   20  A    between atoms: _42  and  _44
REMARK   21  A    between atoms: _44  and  _45
REMARK   22  A    between atoms: _44  and  _47
REMARK   23  A    between atoms: _47  and  _48
REMARK   24  A    between atoms: _51  and  _53
REMARK   25  A    between atoms: _53  and  _54
REMARK   26  A    between atoms: _53  and  _56
REMARK   27  A    between atoms: _56  and  _57
REMARK   28  A    between atoms: _63  and  _65
REMARK   29  A    between atoms: _65  and  _66
REMARK   30  A    between atoms: _68  and  _70
REMARK   31  A    between atoms: _70  and  _71
REMARK   32  A    between atoms: _70  and  _73
REMARK   33  A    between atoms: _73  and  _74
REMARK   34  A    between atoms: _74  and  _75
REMARK   35  A    between atoms: _75  and  _76
REMARK   36  A    between atoms: _76  and  _77
REMARK   37  A    between atoms: _81  and  _83
REMARK   38  A    between atoms: _83  and  _84
REMARK   39  A    between atoms: _83  and  _86
REMARK   40  A    between atoms: _89  and  _91
REMARK   41  A    between atoms: _91  and  _92
REMARK   42  A    between atoms: _91  and  _94
REMARK   43  A    between atoms: _94  and  _95
REMARK   44  A    between atoms: _98  and  _100
REMARK   45  A    between atoms: _100  and  _101
REMARK   46  A    between atoms: _100  and  _103
REMARK   47  A    between atoms: _103  and  _104
REMARK   48  A    between atoms: _107  and  _109
REMARK   49  A    between atoms: _109  and  _110
REMARK   50  A    between atoms: _109  and  _112
REMARK   51  A    between atoms: _112  and  _113
REMARK   52  A    between atoms: _118  and  _119
REMARK   53  A    between atoms: _121  and  _123
REMARK   54  A    between atoms: _123  and  _124
REMARK   55  A    between atoms: _127  and  _129
REMARK   56  A    between atoms: _129  and  _130
REMARK   57  A    between atoms: _129  and  _132
REMARK   58  A    between atoms: _132  and  _133
REMARK   59  A    between atoms: _133  and  _134
REMARK   60  A    between atoms: _136  and  _138
REMARK   61  A    between atoms: _138  and  _139
REMARK   62  A    between atoms: _138  and  _141
REMARK   63  A    between atoms: _141  and  _142
REMARK   64  A    between atoms: _142  and  _143
REMARK   65  A    between atoms: _143  and  _144
REMARK   66  A    between atoms: _144  and  _145
REMARK   67  A    between atoms: _149  and  _151
REMARK   68  A    between atoms: _151  and  _152
REMARK   69  A    between atoms: _151  and  _154
REMARK   70  A    between atoms: _154  and  _155
REMARK   71  A    between atoms: _158  and  _160
REMARK   72  A    between atoms: _160  and  _161
REMARK   73  A    between atoms: _160  and  _163
REMARK   74  A    between atoms: _163  and  _164
REMARK   75  A    between atoms: _167  and  _169
REMARK   76  A    between atoms: _169  and  _170
REMARK   77  A    between atoms: _169  and  _172
REMARK   78  A    between atoms: _172  and  _173
REMARK   79  A    between atoms: _173  and  _174
REMARK   80  A    between atoms: _177  and  _179
REMARK   81  A    between atoms: _179  and  _180
REMARK   82  A    between atoms: _179  and  _182
REMARK   83  A    between atoms: _182  and  _183
REMARK   84  A    between atoms: _185  and  _187
REMARK   85  A    between atoms: _187  and  _188
REMARK   86  A    between atoms: _187  and  _190
REMARK   87  A    between atoms: _190  and  _191
REMARK   88  A    between atoms: _194  and  _196
REMARK   89  A    between atoms: _196  and  _197
REMARK   90  A    between atoms: _196  and  _199
REMARK   91  A    between atoms: _199  and  _200
REMARK   92  A    between atoms: _203  and  _205
REMARK   93  A    between atoms: _205  and  _206
REMARK   94  A    between atoms: _205  and  _208
REMARK   95  A    between atoms: _208  and  _209
REMARK   96  A    between atoms: _212  and  _214
REMARK   97  A    between atoms: _214  and  _215
REMARK   98  A    between atoms: _218  and  _220
REMARK   99  A    between atoms: _220  and  _221
REMARK  100  A    between atoms: _220  and  _223
REMARK  101  A    between atoms: _223  and  _224
REMARK  102  A    between atoms: _227  and  _229
REMARK  103  A    between atoms: _229  and  _230
REMARK  104  A    between atoms: _229  and  _232
REMARK  105  A    between atoms: _232  and  _233
REMARK  106  A    between atoms: _233  and  _234
REMARK  107  A    between atoms: _234  and  _235
REMARK  108  A    between atoms: _235  and  _236
REMARK  109  A    between atoms: _240  and  _242
REMARK  110  A    between atoms: _242  and  _243
REMARK  111  A    between atoms: _242  and  _245
REMARK  112  A    between atoms: _245  and  _246
REMARK  113  A    between atoms: _251  and  _252
REMARK  114  A    between atoms: _254  and  _256
REMARK  115  A    between atoms: _256  and  _257
REMARK  116  A    between atoms: _260  and  _262
REMARK  117  A    between atoms: _262  and  _263
REMARK  118  A    between atoms: _262  and  _265
REMARK  119  A    between atoms: _267  and  _269
REMARK  120  A    between atoms: _269  and  _270
REMARK  121  A    between atoms: _269  and  _272
REMARK  122  A    between atoms: _272  and  _273
REMARK  123  A    between atoms: _279  and  _281
REMARK  124  A    between atoms: _281  and  _282
REMARK  125  A    between atoms: _281  and  _284
REMARK  126  A    between atoms: _287  and  _289
REMARK  127  A    between atoms: _289  and  _290
REMARK  128  A    between atoms: _289  and  _292
REMARK  129  A    between atoms: _292  and  _293
REMARK  130  A    between atoms: _293  and  _294
REMARK  131  A    between atoms: _296  and  _298
REMARK  132  A    between atoms: _298  and  _299
REMARK  133  A    between atoms: _298  and  _301
REMARK  134  A    between atoms: _301  and  _302
REMARK  135  A    between atoms: _302  and  _303
REMARK  136  A    between atoms: _306  and  _308
REMARK  137  A    between atoms: _308  and  _309
REMARK  138  A    between atoms: _308  and  _311
REMARK  139  A    between atoms: _311  and  _312
REMARK  140  A    between atoms: _317  and  _318
REMARK  141  A    between atoms: _320  and  _322
REMARK  142  A    between atoms: _322  and  _323
REMARK  143  A    between atoms: _326  and  _328
REMARK  144  A    between atoms: _328  and  _329
REMARK  145  A    between atoms: _328  and  _331
REMARK  146  A    between atoms: _331  and  _332
REMARK  147  A    between atoms: _337  and  _339
REMARK  148  A    between atoms: _339  and  _340
REMARK  149  A    between atoms: _342  and  _344
REMARK  150  A    between atoms: _344  and  _345
REMARK  151  A    between atoms: _347  and  _349
REMARK  152  A    between atoms: _349  and  _350
REMARK  153  A    between atoms: _349  and  _352
REMARK  154  A    between atoms: _352  and  _353
REMARK  155  A    between atoms: _353  and  _354
REMARK  156  A    between atoms: _357  and  _359
REMARK  157  A    between atoms: _359  and  _360
REMARK  158  A    between atoms: _359  and  _362
REMARK  159  A    between atoms: _362  and  _363
REMARK  160  A    between atoms: _369  and  _371
REMARK  161  A    between atoms: _371  and  _372
REMARK  162  A    between atoms: _371  and  _374
REMARK  163  A    between atoms: _374  and  _375
REMARK  164  A    between atoms: _381  and  _383
REMARK  165  A    between atoms: _383  and  _384
REMARK  166  A    between atoms: _383  and  _386
REMARK  167  A    between atoms: _386  and  _387
REMARK  168  A    between atoms: _392  and  _393
REMARK  169  A    between atoms: _395  and  _397
REMARK  170  A    between atoms: _397  and  _398
REMARK  171  A    between atoms: _397  and  _400
REMARK  172  A    between atoms: _400  and  _401
REMARK  173  A    between atoms: _404  and  _406
REMARK  174  A    between atoms: _406  and  _407
REMARK  175  A    between atoms: _406  and  _409
REMARK  176  A    between atoms: _409  and  _410
REMARK  177  A    between atoms: _410  and  _411
REMARK  178  A    between atoms: _411  and  _412
REMARK  179  A    between atoms: _412  and  _413
REMARK  180  A    between atoms: _417  and  _419
REMARK  181  A    between atoms: _419  and  _420
REMARK  182  A    between atoms: _419  and  _422
REMARK  183  A    between atoms: _422  and  _423
REMARK  184  A    between atoms: _426  and  _428
REMARK  185  A    between atoms: _428  and  _429
REMARK  186  A    between atoms: _428  and  _431
REMARK  187  A    between atoms: _431  and  _432
REMARK  188  A    between atoms: _432  and  _433
REMARK  189  A    between atoms: _436  and  _438
REMARK  190  A    between atoms: _438  and  _439
REMARK  191  A    between atoms: _438  and  _441
REMARK  192  A    between atoms: _441  and  _442
REMARK  193  A    between atoms: _447  and  _449
REMARK  194  A    between atoms: _449  and  _450
REMARK  195  A    between atoms: _449  and  _452
REMARK  196  A    between atoms: _452  and  _453
REMARK  197  A    between atoms: _456  and  _458
REMARK  198  A    between atoms: _458  and  _459
REMARK  199  A    between atoms: _458  and  _461
REMARK  200  A    between atoms: _461  and  _462
REMARK  201  A    between atoms: _462  and  _463
REMARK  202  A    between atoms: _465  and  _467
REMARK  203  A    between atoms: _467  and  _468
REMARK  204  A    between atoms: _467  and  _470
REMARK  205  A    between atoms: _470  and  _471
REMARK  206  A    between atoms: _474  and  _476
REMARK  207  A    between atoms: _476  and  _477
REMARK  208  A    between atoms: _476  and  _479
REMARK  209  A    between atoms: _479  and  _480
REMARK  210  A    between atoms: _480  and  _481
REMARK  211  A    between atoms: _481  and  _482
REMARK  212  A    between atoms: _482  and  _483
REMARK  213  A    between atoms: _487  and  _489
REMARK  214  A    between atoms: _489  and  _490
REMARK  215  A    between atoms: _489  and  _492
REMARK  216  A    between atoms: _492  and  _493
REMARK  217  A    between atoms: _496  and  _498
REMARK  218  A    between atoms: _498  and  _499
REMARK  219  A    between atoms: _498  and  _501
REMARK  220  A    between atoms: _501  and  _502
REMARK  221  A    between atoms: _505  and  _507
REMARK  222  A    between atoms: _507  and  _508
REMARK  223  A    between atoms: _507  and  _510
REMARK  224  A    between atoms: _510  and  _511
REMARK  225  A    between atoms: _514  and  _516
REMARK  226  A    between atoms: _516  and  _517
REMARK  227  A    between atoms: _516  and  _519
REMARK  228  A    between atoms: _519  and  _520
REMARK  229  A    between atoms: _526  and  _528
REMARK  230  A    between atoms: _528  and  _529
REMARK  231  A    between atoms: _531  and  _533
REMARK  232  A    between atoms: _533  and  _534
REMARK  233  A    between atoms: _533  and  _536
REMARK  234  A    between atoms: _536  and  _537
REMARK  235  A    between atoms: _540  and  _542
REMARK  236  A    between atoms: _542  and  _543
REMARK  237  A    between atoms: _542  and  _545
REMARK  238  A    between atoms: _547  and  _549
REMARK  239  A    between atoms: _549  and  _550
REMARK  240  A    between atoms: _549  and  _552
REMARK  241  A    between atoms: _552  and  _553
REMARK  242  A    between atoms: _559  and  _561
REMARK  243  A    between atoms: _561  and  _562
REMARK  244  A    between atoms: _561  and  _564
REMARK  245  A    between atoms: _564  and  _565
REMARK  246  A    between atoms: _568  and  _570
REMARK  247  A    between atoms: _570  and  _571
REMARK  248  A    between atoms: _570  and  _573
REMARK  249  A    between atoms: _573  and  _574
REMARK  250  A    between atoms: _574  and  _575
REMARK  251  A    between atoms: _578  and  _580
REMARK  252  A    between atoms: _580  and  _581
REMARK  253  A    between atoms: _580  and  _583
REMARK  254  A    between atoms: _583  and  _584
REMARK  255  A    between atoms: _590  and  _592
REMARK  256  A    between atoms: _592  and  _593
REMARK  257  A    between atoms: _592  and  _595
REMARK  258  A    between atoms: _595  and  _596
REMARK                            x       y       z     vdW  Elec       q    Type
REMARK                         _______ _______ _______ _____ _____    ______ ____
ROOT
ATOM      1  O   HOH     1      16.999 -25.322  12.629  0.00  0.00    +0.000 OA
ENDROOT
TORSDOF 0
REMARK  Name = ../refined-set-2016/3d0e/3d0e_pocket.pdb
REMARK  258 active torsions:
REMARK  status: ('A' for Active; 'I' for Inactive)
REMARK    1  A    between atoms: _1  and  _3
REMARK    2  A    between atoms: _3  and  _4
REMARK    3  A    between atoms: _3  and  _6
REMARK    4  A    between atoms: _6  and  _7
REMARK    5  A    between atoms: _10  and  _12
REMARK    6  A    between atoms: _12  and  _13
REMARK    7  A    between atoms: _12  and  _15
REMARK    8  A    between atoms: _15  and  _16
REMARK    9  A    between atoms: _19  and  _21
REMARK   10  A    between atoms: _21  and  _22
REMARK   11  A    between atoms: _24  and  _26
REMARK   12  A    between atoms: _26  and  _27
REMARK   13  A    between atoms: _26  and  _29
REMARK   14  A    between atoms: _29  and  _30
REMARK   15  A    between atoms: _30  and  _31
REMARK   16  A    between atoms: _31  and  _32
REMARK   17  A    between atoms: _32  and  _33
REMARK   18  A    between atoms: _37  and  _39
REMARK   19  A    between atoms: _39  and  _40
REMARK   20  A    between atoms: _42  and  _44
REMARK   21  A    between atoms: _44  and  _45
REMARK   22  A    between atoms: _44  and  _47
REMARK   23  A    between atoms: _47  and  _48
REMARK   24  A    between atoms: _51  and  _53
REMARK   25  A    between atoms: _53  and  _54
REMARK   26  A    between atoms: _53  and  _56
REMARK   27  A    between atoms: _56  and  _57
REMARK   28  A    between atoms: _63  and  _65
REMARK   29  A    between atoms: _65  and  _66
REMARK   30  A    between atoms: _68  and  _70
REMARK   31  A    between atoms: _70  and  _71
REMARK   32  A    between atoms: _70  and  _73
REMARK   33  A    between atoms: _73  and  _74
REMARK   34  A    between atoms: _74  and  _75
REMARK   35  A    between atoms: _75  and  _76
REMARK   36  A    between atoms: _76  and  _77
REMARK   37  A    between atoms: _81  and  _83
REMARK   38  A    between atoms: _83  and  _84
REMARK   39  A    between atoms: _83  and  _86
REMARK   40  A    between atoms: _89  and  _91
REMARK   41  A    between atoms: _91  and  _92
REMARK   42  A    between atoms: _91  and  _94
REMARK   43  A    between atoms: _94  and  _95
REMARK   44  A    between atoms: _98  and  _100
REMARK   45  A    between atoms: _100  and  _101
REMARK   46  A    between atoms: _100  and  _103
REMARK   47  A    between atoms: _103  and  _104
REMARK   48  A    between atoms: _107  and  _109
REMARK   49  A    between atoms: _109  and  _110
REMARK   50  A    between atoms: _109  and  _112
REMARK   51  A    between atoms: _112  and  _113
REMARK   52  A    between atoms: _118  and  _119
REMARK   53  A    between atoms: _121  and  _123
REMARK   54  A    between atoms: _123  and  _124
REMARK   55  A    between atoms: _127  and  _129
REMARK   56  A    between atoms: _129  and  _130
REMARK   57  A    between atoms: _129  and  _132
REMARK   58  A    between atoms: _132  and  _133
REMARK   59  A    between atoms: _133  and  _134
REMARK   60  A    between atoms: _136  and  _138
REMARK   61  A    between atoms: _138  and  _139
REMARK   62  A    between atoms: _138  and  _141
REMARK   63  A    between atoms: _141  and  _142
REMARK   64  A    between atoms: _142  and  _143
REMARK   65  A    between atoms: _143  and  _144
REMARK   66  A    between atoms: _144  and  _145
REMARK   67  A    between atoms: _149  and  _151
REMARK   68  A    between atoms: _151  and  _152
REMARK   69  A    between atoms: _151  and  _154
REMARK   70  A    between atoms: _154  and  _155
REMARK   71  A    between atoms: _158  and  _160
REMARK   72  A    between atoms: _160  and  _161
REMARK   73  A    between atoms: _160  and  _163
REMARK   74  A    between atoms: _163  and  _164
REMARK   75  A    between atoms: _167  and  _169
REMARK   76  A    between atoms: _169  and  _170
REMARK   77  A    between atoms: _169  and  _172
REMARK   78  A    between atoms: _172  and  _173
REMARK   79  A    between atoms: _173  and  _174
REMARK   80  A    between atoms: _177  and  _179
REMARK   81  A    between atoms: _179  and  _180
REMARK   82  A    between atoms: _179  and  _182
REMARK   83  A    between atoms: _182  and  _183
REMARK   84  A    between atoms: _185  and  _187
REMARK   85  A    between atoms: _187  and  _188
REMARK   86  A    between atoms: _187  and  _190
REMARK   87  A    between atoms: _190  and  _191
REMARK   88  A    between atoms: _194  and  _196
REMARK   89  A    between atoms: _196  and  _197
REMARK   90  A    between atoms: _196  and  _199
REMARK   91  A    between atoms: _199  and  _200
REMARK   92  A    between atoms: _203  and  _205
REMARK   93  A    between atoms: _205  and  _206
REMARK   94  A    between atoms: _205  and  _208
REMARK   95  A    between atoms: _208  and  _209
REMARK   96  A    between atoms: _212  and  _214
REMARK   97  A    between atoms: _214  and  _215
REMARK   98  A    between atoms: _218  and  _220
REMARK   99  A    between atoms: _220  and  _221
REMARK  100  A    between atoms: _220  and  _223
REMARK  101  A    between atoms: _223  and  _224
REMARK  102  A    between atoms: _227  and  _229
REMARK  103  A    between atoms: _229  and  _230
REMARK  104  A    between atoms: _229  and  _232
REMARK  105  A    between atoms: _232  and  _233
REMARK  106  A    between atoms: _233  and  _234
REMARK  107  A    between atoms: _234  and  _235
REMARK  108  A    between atoms: _235  and  _236
REMARK  109  A    between atoms: _240  and  _242
REMARK  110  A    between atoms: _242  and  _243
REMARK  111  A    between atoms: _242  and  _245
REMARK  112  A    between atoms: _245  and  _246
REMARK  113  A    between atoms: _251  and  _252
REMARK  114  A    between atoms: _254  and  _256
REMARK  115  A    between atoms: _256  and  _257
REMARK  116  A    between atoms: _260  and  _262
REMARK  117  A    between atoms: _262  and  _263
REMARK  118  A    between atoms: _262  and  _265
REMARK  119  A    between atoms: _267  and  _269
REMARK  120  A    between atoms: _269  and  _270
REMARK  121  A    between atoms: _269  and  _272
REMARK  122  A    between atoms: _272  and  _273
REMARK  123  A    between atoms: _279  and  _281
REMARK  124  A    between atoms: _281  and  _282
REMARK  125  A    between atoms: _281  and  _284
REMARK  126  A    between atoms: _287  and  _289
REMARK  127  A    between atoms: _289  and  _290
REMARK  128  A    between atoms: _289  and  _292
REMARK  129  A    between atoms: _292  and  _293
REMARK  130  A    between atoms: _293  and  _294
REMARK  131  A    between atoms: _296  and  _298
REMARK  132  A    between atoms: _298  and  _299
REMARK  133  A    between atoms: _298  and  _301
REMARK  134  A    between atoms: _301  and  _302
REMARK  135  A    between atoms: _302  and  _303
REMARK  136  A    between atoms: _306  and  _308
REMARK  137  A    between atoms: _308  and  _309
REMARK  138  A    between atoms: _308  and  _311
REMARK  139  A    between atoms: _311  and  _312
REMARK  140  A    between atoms: _317  and  _318
REMARK  141  A    between atoms: _320  and  _322
REMARK  142  A    between atoms: _322  and  _323
REMARK  143  A    between atoms: _326  and  _328
REMARK  144  A    between atoms: _328  and  _329
REMARK  145  A    between atoms: _328  and  _331
REMARK  146  A    between atoms: _331  and  _332
REMARK  147  A    between atoms: _337  and  _339
REMARK  148  A    between atoms: _339  and  _340
REMARK  149  A    between atoms: _342  and  _344
REMARK  150  A    between atoms: _344  and  _345
REMARK  151  A    between atoms: _347  and  _349
REMARK  152  A    between atoms: _349  and  _350
REMARK  153  A    between atoms: _349  and  _352
REMARK  154  A    between atoms: _352  and  _353
REMARK  155  A    between atoms: _353  and  _354
REMARK  156  A    between atoms: _357  and  _359
REMARK  157  A    between atoms: _359  and  _360
REMARK  158  A    between atoms: _359  and  _362
REMARK  159  A    between atoms: _362  and  _363
REMARK  160  A    between atoms: _369  and  _371
REMARK  161  A    between atoms: _371  and  _372
REMARK  162  A    between atoms: _371  and  _374
REMARK  163  A    between atoms: _374  and  _375
REMARK  164  A    between atoms: _381  and  _383
REMARK  165  A    between atoms: _383  and  _384
REMARK  166  A    between atoms: _383  and  _386
REMARK  167  A    between atoms: _386  and  _387
REMARK  168  A    between atoms: _392  and  _393
REMARK  169  A    between atoms: _395  and  _397
REMARK  170  A    between atoms: _397  and  _398
REMARK  171  A    between atoms: _397  and  _400
REMARK  172  A    between atoms: _400  and  _401
REMARK  173  A    between atoms: _404  and  _406
REMARK  174  A    between atoms: _406  and  _407
REMARK  175  A    between atoms: _406  and  _409
REMARK  176  A    between atoms: _409  and  _410
REMARK  177  A    between atoms: _410  and  _411
REMARK  178  A    between atoms: _411  and  _412
REMARK  179  A    between atoms: _412  and  _413
REMARK  180  A    between atoms: _417  and  _419
REMARK  181  A    between atoms: _419  and  _420
REMARK  182  A    between atoms: _419  and  _422
REMARK  183  A    between atoms: _422  and  _423
REMARK  184  A    between atoms: _426  and  _428
REMARK  185  A    between atoms: _428  and  _429
REMARK  186  A    between atoms: _428  and  _431
REMARK  187  A    between atoms: _431  and  _432
REMARK  188  A    between atoms: _432  and  _433
REMARK  189  A    between atoms: _436  and  _438
REMARK  190  A    between atoms: _438  and  _439
REMARK  191  A    between atoms: _438  and  _441
REMARK  192  A    between atoms: _441  and  _442
REMARK  193  A    between atoms: _447  and  _449
REMARK  194  A    between atoms: _449  and  _450
REMARK  195  A    between atoms: _449  and  _452
REMARK  196  A    between atoms: _452  and  _453
REMARK  197  A    between atoms: _456  and  _458
REMARK  198  A    between atoms: _458  and  _459
REMARK  199  A    between atoms: _458  and  _461
REMARK  200  A    between atoms: _461  and  _462
REMARK  201  A    between atoms: _462  and  _463
REMARK  202  A    between atoms: _465  and  _467
REMARK  203  A    between atoms: _467  and  _468
REMARK  204  A    between atoms: _467  and  _470
REMARK  205  A    between atoms: _470  and  _471
REMARK  206  A    between atoms: _474  and  _476
REMARK  207  A    between atoms: _476  and  _477
REMARK  208  A    between atoms: _476  and  _479
REMARK  209  A    between atoms: _479  and  _480
REMARK  210  A    between atoms: _480  and  _481
REMARK  211  A    between atoms: _481  and  _482
REMARK  212  A    between atoms: _482  and  _483
REMARK  213  A    between atoms: _487  and  _489
REMARK  214  A    between atoms: _489  and  _490
REMARK  215  A    between atoms: _489  and  _492
REMARK  216  A    between atoms: _492  and  _493
REMARK  217  A    between atoms: _496  and  _498
REMARK  218  A    between atoms: _498  and  _499
REMARK  219  A    between atoms: _498  and  _501
REMARK  220  A    between atoms: _501  and  _502
REMARK  221  A    between atoms: _505  and  _507
REMARK  222  A    between atoms: _507  and  _508
REMARK  223  A    between atoms: _507  and  _510
REMARK  224  A    between atoms: _510  and  _511
REMARK  225  A    between atoms: _514  and  _516
REMARK  226  A    between atoms: _516  and  _517
REMARK  227  A    between atoms: _516  and  _519
REMARK  228  A    between atoms: _519  and  _520
REMARK  229  A    between atoms: _526  and  _528
REMARK  230  A    between atoms: _528  and  _529
REMARK  231  A    between atoms: _531  and  _533
REMARK  232  A    between atoms: _533  and  _534
REMARK  233  A    between atoms: _533  and  _536
REMARK  234  A    between atoms: _536  and  _537
REMARK  235  A    between atoms: _540  and  _542
REMARK  236  A    between atoms: _542  and  _543
REMARK  237  A    between atoms: _542  and  _545
REMARK  238  A    between atoms: _547  and  _549
REMARK  239  A    between atoms: _549  and  _550
REMARK  240  A    between atoms: _549  and  _552
REMARK  241  A    between atoms: _552  and  _553
REMARK  242  A    between atoms: _559  and  _561
REMARK  243  A    between atoms: _561  and  _562
REMARK  244  A    between atoms: _561  and  _564
REMARK  245  A    between atoms: _564  and  _565
REMARK  246  A    between atoms: _568  and  _570
REMARK  247  A    between atoms: _570  and  _571
REMARK  248  A    between atoms: _570  and  _573
REMARK  249  A    between atoms: _573  and  _574
REMARK  250  A    between atoms: _574  and  _575
REMARK  251  A    between atoms: _578  and  _580
REMARK  252  A    between atoms: _580  and  _581
REMARK  253  A    between atoms: _580  and  _583
REMARK  254  A    between atoms: _583  and  _584
REMARK  255  A    between atoms: _590  and  _592
REMARK  256  A    between atoms: _592  and  _593
REMARK  257  A    between atoms: _592  and  _595
REMARK  258  A    between atoms: _595  and  _596
REMARK                            x       y       z     vdW  Elec       q    Type
REMARK                         _______ _______ _______ _____ _____    ______ ____
ROOT
ATOM      1  O   HOH     1      16.619 -23.559  15.592  0.00  0.00    +0.000 OA
ENDROOT
TORSDOF 0
REMARK  Name = ../refined-set-2016/3d0e/3d0e_pocket.pdb
REMARK  258 active torsions:
REMARK  status: ('A' for Active; 'I' for Inactive)
REMARK    1  A    between atoms: _1  and  _3
REMARK    2  A    between atoms: _3  and  _4
REMARK    3  A    between atoms: _3  and  _6
REMARK    4  A    between atoms: _6  and  _7
REMARK    5  A    between atoms: _10  and  _12
REMARK    6  A    between atoms: _12  and  _13
REMARK    7  A    between atoms: _12  and  _15
REMARK    8  A    between atoms: _15  and  _16
REMARK    9  A    between atoms: _19  and  _21
REMARK   10  A    between atoms: _21  and  _22
REMARK   11  A    between atoms: _24  and  _26
REMARK   12  A    between atoms: _26  and  _27
REMARK   13  A    between atoms: _26  and  _29
REMARK   14  A    between atoms: _29  and  _30
REMARK   15  A    between atoms: _30  and  _31
REMARK   16  A    between atoms: _31  and  _32
REMARK   17  A    between atoms: _32  and  _33
REMARK   18  A    between atoms: _37  and  _39
REMARK   19  A    between atoms: _39  and  _40
REMARK   20  A    between atoms: _42  and  _44
REMARK   21  A    between atoms: _44  and  _45
REMARK   22  A    between atoms: _44  and  _47
REMARK   23  A    between atoms: _47  and  _48
REMARK   24  A    between atoms: _51  and  _53
REMARK   25  A    between atoms: _53  and  _54
REMARK   26  A    between atoms: _53  and  _56
REMARK   27  A    between atoms: _56  and  _57
REMARK   28  A    between atoms: _63  and  _65
REMARK   29  A    between atoms: _65  and  _66
REMARK   30  A    between atoms: _68  and  _70
REMARK   31  A    between atoms: _70  and  _71
REMARK   32  A    between atoms: _70  and  _73
REMARK   33  A    between atoms: _73  and  _74
REMARK   34  A    between atoms: _74  and  _75
REMARK   35  A    between atoms: _75  and  _76
REMARK   36  A    between atoms: _76  and  _77
REMARK   37  A    between atoms: _81  and  _83
REMARK   38  A    between atoms: _83  and  _84
REMARK   39  A    between atoms: _83  and  _86
REMARK   40  A    between atoms: _89  and  _91
REMARK   41  A    between atoms: _91  and  _92
REMARK   42  A    between atoms: _91  and  _94
REMARK   43  A    between atoms: _94  and  _95
REMARK   44  A    between atoms: _98  and  _100
REMARK   45  A    between atoms: _100  and  _101
REMARK   46  A    between atoms: _100  and  _103
REMARK   47  A    between atoms: _103  and  _104
REMARK   48  A    between atoms: _107  and  _109
REMARK   49  A    between atoms: _109  and  _110
REMARK   50  A    between atoms: _109  and  _112
REMARK   51  A    between atoms: _112  and  _113
REMARK   52  A    between atoms: _118  and  _119
REMARK   53  A    between atoms: _121  and  _123
REMARK   54  A    between atoms: _123  and  _124
REMARK   55  A    between atoms: _127  and  _129
REMARK   56  A    between atoms: _129  and  _130
REMARK   57  A    between atoms: _129  and  _132
REMARK   58  A    between atoms: _132  and  _133
REMARK   59  A    between atoms: _133  and  _134
REMARK   60  A    between atoms: _136  and  _138
REMARK   61  A    between atoms: _138  and  _139
REMARK   62  A    between atoms: _138  and  _141
REMARK   63  A    between atoms: _141  and  _142
REMARK   64  A    between atoms: _142  and  _143
REMARK   65  A    between atoms: _143  and  _144
REMARK   66  A    between atoms: _144  and  _145
REMARK   67  A    between atoms: _149  and  _151
REMARK   68  A    between atoms: _151  and  _152
REMARK   69  A    between atoms: _151  and  _154
REMARK   70  A    between atoms: _154  and  _155
REMARK   71  A    between atoms: _158  and  _160
REMARK   72  A    between atoms: _160  and  _161
REMARK   73  A    between atoms: _160  and  _163
REMARK   74  A    between atoms: _163  and  _164
REMARK   75  A    between atoms: _167  and  _169
REMARK   76  A    between atoms: _169  and  _170
REMARK   77  A    between atoms: _169  and  _172
REMARK   78  A    between atoms: _172  and  _173
REMARK   79  A    between atoms: _173  and  _174
REMARK   80  A    between atoms: _177  and  _179
REMARK   81  A    between atoms: _179  and  _180
REMARK   82  A    between atoms: _179  and  _182
REMARK   83  A    between atoms: _182  and  _183
REMARK   84  A    between atoms: _185  and  _187
REMARK   85  A    between atoms: _187  and  _188
REMARK   86  A    between atoms: _187  and  _190
REMARK   87  A    between atoms: _190  and  _191
REMARK   88  A    between atoms: _194  and  _196
REMARK   89  A    between atoms: _196  and  _197
REMARK   90  A    between atoms: _196  and  _199
REMARK   91  A    between atoms: _199  and  _200
REMARK   92  A    between atoms: _203  and  _205
REMARK   93  A    between atoms: _205  and  _206
REMARK   94  A    between atoms: _205  and  _208
REMARK   95  A    between atoms: _208  and  _209
REMARK   96  A    between atoms: _212  and  _214
REMARK   97  A    between atoms: _214  and  _215
REMARK   98  A    between atoms: _218  and  _220
REMARK   99  A    between atoms: _220  and  _221
REMARK  100  A    between atoms: _220  and  _223
REMARK  101  A    between atoms: _223  and  _224
REMARK  102  A    between atoms: _227  and  _229
REMARK  103  A    between atoms: _229  and  _230
REMARK  104  A    between atoms: _229  and  _232
REMARK  105  A    between atoms: _232  and  _233
REMARK  106  A    between atoms: _233  and  _234
REMARK  107  A    between atoms: _234  and  _235
REMARK  108  A    between atoms: _235  and  _236
REMARK  109  A    between atoms: _240  and  _242
REMARK  110  A    between atoms: _242  and  _243
REMARK  111  A    between atoms: _242  and  _245
REMARK  112  A    between atoms: _245  and  _246
REMARK  113  A    between atoms: _251  and  _252
REMARK  114  A    between atoms: _254  and  _256
REMARK  115  A    between atoms: _256  and  _257
REMARK  116  A    between atoms: _260  and  _262
REMARK  117  A    between atoms: _262  and  _263
REMARK  118  A    between atoms: _262  and  _265
REMARK  119  A    between atoms: _267  and  _269
REMARK  120  A    between atoms: _269  and  _270
REMARK  121  A    between atoms: _269  and  _272
REMARK  122  A    between atoms: _272  and  _273
REMARK  123  A    between atoms: _279  and  _281
REMARK  124  A    between atoms: _281  and  _282
REMARK  125  A    between atoms: _281  and  _284
REMARK  126  A    between atoms: _287  and  _289
REMARK  127  A    between atoms: _289  and  _290
REMARK  128  A    between atoms: _289  and  _292
REMARK  129  A    between atoms: _292  and  _293
REMARK  130  A    between atoms: _293  and  _294
REMARK  131  A    between atoms: _296  and  _298
REMARK  132  A    between atoms: _298  and  _299
REMARK  133  A    between atoms: _298  and  _301
REMARK  134  A    between atoms: _301  and  _302
REMARK  135  A    between atoms: _302  and  _303
REMARK  136  A    between atoms: _306  and  _308
REMARK  137  A    between atoms: _308  and  _309
REMARK  138  A    between atoms: _308  and  _311
REMARK  139  A    between atoms: _311  and  _312
REMARK  140  A    between atoms: _317  and  _318
REMARK  141  A    between atoms: _320  and  _322
REMARK  142  A    between atoms: _322  and  _323
REMARK  143  A    between atoms: _326  and  _328
REMARK  144  A    between atoms: _328  and  _329
REMARK  145  A    between atoms: _328  and  _331
REMARK  146  A    between atoms: _331  and  _332
REMARK  147  A    between atoms: _337  and  _339
REMARK  148  A    between atoms: _339  and  _340
REMARK  149  A    between atoms: _342  and  _344
REMARK  150  A    between atoms: _344  and  _345
REMARK  151  A    between atoms: _347  and  _349
REMARK  152  A    between atoms: _349  and  _350
REMARK  153  A    between atoms: _349  and  _352
REMARK  154  A    between atoms: _352  and  _353
REMARK  155  A    between atoms: _353  and  _354
REMARK  156  A    between atoms: _357  and  _359
REMARK  157  A    between atoms: _359  and  _360
REMARK  158  A    between atoms: _359  and  _362
REMARK  159  A    between atoms: _362  and  _363
REMARK  160  A    between atoms: _369  and  _371
REMARK  161  A    between atoms: _371  and  _372
REMARK  162  A    between atoms: _371  and  _374
REMARK  163  A    between atoms: _374  and  _375
REMARK  164  A    between atoms: _381  and  _383
REMARK  165  A    between atoms: _383  and  _384
REMARK  166  A    between atoms: _383  and  _386
REMARK  167  A    between atoms: _386  and  _387
REMARK  168  A    between atoms: _392  and  _393
REMARK  169  A    between atoms: _395  and  _397
REMARK  170  A    between atoms: _397  and  _398
REMARK  171  A    between atoms: _397  and  _400
REMARK  172  A    between atoms: _400  and  _401
REMARK  173  A    between atoms: _404  and  _406
REMARK  174  A    between atoms: _406  and  _407
REMARK  175  A    between atoms: _406  and  _409
REMARK  176  A    between atoms: _409  and  _410
REMARK  177  A    between atoms: _410  and  _411
REMARK  178  A    between atoms: _411  and  _412
REMARK  179  A    between atoms: _412  and  _413
REMARK  180  A    between atoms: _417  and  _419
REMARK  181  A    between atoms: _419  and  _420
REMARK  182  A    between atoms: _419  and  _422
REMARK  183  A    between atoms: _422  and  _423
REMARK  184  A    between atoms: _426  and  _428
REMARK  185  A    between atoms: _428  and  _429
REMARK  186  A    between atoms: _428  and  _431
REMARK  187  A    between atoms: _431  and  _432
REMARK  188  A    between atoms: _432  and  _433
REMARK  189  A    between atoms: _436  and  _438
REMARK  190  A    between atoms: _438  and  _439
REMARK  191  A    between atoms: _438  and  _441
REMARK  192  A    between atoms: _441  and  _442
REMARK  193  A    between atoms: _447  and  _449
REMARK  194  A    between atoms: _449  and  _450
REMARK  195  A    between atoms: _449  and  _452
REMARK  196  A    between atoms: _452  and  _453
REMARK  197  A    between atoms: _456  and  _458
REMARK  198  A    between atoms: _458  and  _459
REMARK  199  A    between atoms: _458  and  _461
REMARK  200  A    between atoms: _461  and  _462
REMARK  201  A    between atoms: _462  and  _463
REMARK  202  A    between atoms: _465  and  _467
REMARK  203  A    between atoms: _467  and  _468
REMARK  204  A    between atoms: _467  and  _470
REMARK  205  A    between atoms: _470  and  _471
REMARK  206  A    between atoms: _474  and  _476
REMARK  207  A    between atoms: _476  and  _477
REMARK  208  A    between atoms: _476  and  _479
REMARK  209  A    between atoms: _479  and  _480
REMARK  210  A    between atoms: _480  and  _481
REMARK  211  A    between atoms: _481  and  _482
REMARK  212  A    between atoms: _482  and  _483
REMARK  213  A    between atoms: _487  and  _489
REMARK  214  A    between atoms: _489  and  _490
REMARK  215  A    between atoms: _489  and  _492
REMARK  216  A    between atoms: _492  and  _493
REMARK  217  A    between atoms: _496  and  _498
REMARK  218  A    between atoms: _498  and  _499
REMARK  219  A    between atoms: _498  and  _501
REMARK  220  A    between atoms: _501  and  _502
REMARK  221  A    between atoms: _505  and  _507
REMARK  222  A    between atoms: _507  and  _508
REMARK  223  A    between atoms: _507  and  _510
REMARK  224  A    between atoms: _510  and  _511
REMARK  225  A    between atoms: _514  and  _516
REMARK  226  A    between atoms: _516  and  _517
REMARK  227  A    between atoms: _516  and  _519
REMARK  228  A    between atoms: _519  and  _520
REMARK  229  A    between atoms: _526  and  _528
REMARK  230  A    between atoms: _528  and  _529
REMARK  231  A    between atoms: _531  and  _533
REMARK  232  A    between atoms: _533  and  _534
REMARK  233  A    between atoms: _533  and  _536
REMARK  234  A    between atoms: _536  and  _537
REMARK  235  A    between atoms: _540  and  _542
REMARK  236  A    between atoms: _542  and  _543
REMARK  237  A    between atoms: _542  and  _545
REMARK  238  A    between atoms: _547  and  _549
REMARK  239  A    between atoms: _549  and  _550
REMARK  240  A    between atoms: _549  and  _552
REMARK  241  A    between atoms: _552  and  _553
REMARK  242  A    between atoms: _559  and  _561
REMARK  243  A    between atoms: _561  and  _562
REMARK  244  A    between atoms: _561  and  _564
REMARK  245  A    between atoms: _564  and  _565
REMARK  246  A    between atoms: _568  and  _570
REMARK  247  A    between atoms: _570  and  _571
REMARK  248  A    between atoms: _570  and  _573
REMARK  249  A    between atoms: _573  and  _574
REMARK  250  A    between atoms: _574  and  _575
REMARK  251  A    between atoms: _578  and  _580
REMARK  252  A    between atoms: _580  and  _581
REMARK  253  A    between atoms: _580  and  _583
REMARK  254  A    between atoms: _583  and  _584
REMARK  255  A    between atoms: _590  and  _592
REMARK  256  A    between atoms: _592  and  _593
REMARK  257  A    between atoms: _592  and  _595
REMARK  258  A    between atoms: _595  and  _596
REMARK                            x       y       z     vdW  Elec       q    Type
REMARK                         _______ _______ _______ _____ _____    ______ ____
ROOT
ATOM      1  O   HOH     1      24.491 -22.188   1.104  0.00  0.00    +0.000 OA
ENDROOT
TORSDOF 0
REMARK  Name = ../refined-set-2016/3d0e/3d0e_pocket.pdb
REMARK  258 active torsions:
REMARK  status: ('A' for Active; 'I' for Inactive)
REMARK    1  A    between atoms: _1  and  _3
REMARK    2  A    between atoms: _3  and  _4
REMARK    3  A    between atoms: _3  and  _6
REMARK    4  A    between atoms: _6  and  _7
REMARK    5  A    between atoms: _10  and  _12
REMARK    6  A    between atoms: _12  and  _13
REMARK    7  A    between atoms: _12  and  _15
REMARK    8  A    between atoms: _15  and  _16
REMARK    9  A    between atoms: _19  and  _21
REMARK   10  A    between atoms: _21  and  _22
REMARK   11  A    between atoms: _24  and  _26
REMARK   12  A    between atoms: _26  and  _27
REMARK   13  A    between atoms: _26  and  _29
REMARK   14  A    between atoms: _29  and  _30
REMARK   15  A    between atoms: _30  and  _31
REMARK   16  A    between atoms: _31  and  _32
REMARK   17  A    between atoms: _32  and  _33
REMARK   18  A    between atoms: _37  and  _39
REMARK   19  A    between atoms: _39  and  _40
REMARK   20  A    between atoms: _42  and  _44
REMARK   21  A    between atoms: _44  and  _45
REMARK   22  A    between atoms: _44  and  _47
REMARK   23  A    between atoms: _47  and  _48
REMARK   24  A    between atoms: _51  and  _53
REMARK   25  A    between atoms: _53  and  _54
REMARK   26  A    between atoms: _53  and  _56
REMARK   27  A    between atoms: _56  and  _57
REMARK   28  A    between atoms: _63  and  _65
REMARK   29  A    between atoms: _65  and  _66
REMARK   30  A    between atoms: _68  and  _70
REMARK   31  A    between atoms: _70  and  _71
REMARK   32  A    between atoms: _70  and  _73
REMARK   33  A    between atoms: _73  and  _74
REMARK   34  A    between atoms: _74  and  _75
REMARK   35  A    between atoms: _75  and  _76
REMARK   36  A    between atoms: _76  and  _77
REMARK   37  A    between atoms: _81  and  _83
REMARK   38  A    between atoms: _83  and  _84
REMARK   39  A    between atoms: _83  and  _86
REMARK   40  A    between atoms: _89  and  _91
REMARK   41  A    between atoms: _91  and  _92
REMARK   42  A    between atoms: _91  and  _94
REMARK   43  A    between atoms: _94  and  _95
REMARK   44  A    between atoms: _98  and  _100
REMARK   45  A    between atoms: _100  and  _101
REMARK   46  A    between atoms: _100  and  _103
REMARK   47  A    between atoms: _103  and  _104
REMARK   48  A    between atoms: _107  and  _109
REMARK   49  A    between atoms: _109  and  _110
REMARK   50  A    between atoms: _109  and  _112
REMARK   51  A    between atoms: _112  and  _113
REMARK   52  A    between atoms: _118  and  _119
REMARK   53  A    between atoms: _121  and  _123
REMARK   54  A    between atoms: _123  and  _124
REMARK   55  A    between atoms: _127  and  _129
REMARK   56  A    between atoms: _129  and  _130
REMARK   57  A    between atoms: _129  and  _132
REMARK   58  A    between atoms: _132  and  _133
REMARK   59  A    between atoms: _133  and  _134
REMARK   60  A    between atoms: _136  and  _138
REMARK   61  A    between atoms: _138  and  _139
REMARK   62  A    between atoms: _138  and  _141
REMARK   63  A    between atoms: _141  and  _142
REMARK   64  A    between atoms: _142  and  _143
REMARK   65  A    between atoms: _143  and  _144
REMARK   66  A    between atoms: _144  and  _145
REMARK   67  A    between atoms: _149  and  _151
REMARK   68  A    between atoms: _151  and  _152
REMARK   69  A    between atoms: _151  and  _154
REMARK   70  A    between atoms: _154  and  _155
REMARK   71  A    between atoms: _158  and  _160
REMARK   72  A    between atoms: _160  and  _161
REMARK   73  A    between atoms: _160  and  _163
REMARK   74  A    between atoms: _163  and  _164
REMARK   75  A    between atoms: _167  and  _169
REMARK   76  A    between atoms: _169  and  _170
REMARK   77  A    between atoms: _169  and  _172
REMARK   78  A    between atoms: _172  and  _173
REMARK   79  A    between atoms: _173  and  _174
REMARK   80  A    between atoms: _177  and  _179
REMARK   81  A    between atoms: _179  and  _180
REMARK   82  A    between atoms: _179  and  _182
REMARK   83  A    between atoms: _182  and  _183
REMARK   84  A    between atoms: _185  and  _187
REMARK   85  A    between atoms: _187  and  _188
REMARK   86  A    between atoms: _187  and  _190
REMARK   87  A    between atoms: _190  and  _191
REMARK   88  A    between atoms: _194  and  _196
REMARK   89  A    between atoms: _196  and  _197
REMARK   90  A    between atoms: _196  and  _199
REMARK   91  A    between atoms: _199  and  _200
REMARK   92  A    between atoms: _203  and  _205
REMARK   93  A    between atoms: _205  and  _206
REMARK   94  A    between atoms: _205  and  _208
REMARK   95  A    between atoms: _208  and  _209
REMARK   96  A    between atoms: _212  and  _214
REMARK   97  A    between atoms: _214  and  _215
REMARK   98  A    between atoms: _218  and  _220
REMARK   99  A    between atoms: _220  and  _221
REMARK  100  A    between atoms: _220  and  _223
REMARK  101  A    between atoms: _223  and  _224
REMARK  102  A    between atoms: _227  and  _229
REMARK  103  A    between atoms: _229  and  _230
REMARK  104  A    between atoms: _229  and  _232
REMARK  105  A    between atoms: _232  and  _233
REMARK  106  A    between atoms: _233  and  _234
REMARK  107  A    between atoms: _234  and  _235
REMARK  108  A    between atoms: _235  and  _236
REMARK  109  A    between atoms: _240  and  _242
REMARK  110  A    between atoms: _242  and  _243
REMARK  111  A    between atoms: _242  and  _245
REMARK  112  A    between atoms: _245  and  _246
REMARK  113  A    between atoms: _251  and  _252
REMARK  114  A    between atoms: _254  and  _256
REMARK  115  A    between atoms: _256  and  _257
REMARK  116  A    between atoms: _260  and  _262
REMARK  117  A    between atoms: _262  and  _263
REMARK  118  A    between atoms: _262  and  _265
REMARK  119  A    between atoms: _267  and  _269
REMARK  120  A    between atoms: _269  and  _270
REMARK  121  A    between atoms: _269  and  _272
REMARK  122  A    between atoms: _272  and  _273
REMARK  123  A    between atoms: _279  and  _281
REMARK  124  A    between atoms: _281  and  _282
REMARK  125  A    between atoms: _281  and  _284
REMARK  126  A    between atoms: _287  and  _289
REMARK  127  A    between atoms: _289  and  _290
REMARK  128  A    between atoms: _289  and  _292
REMARK  129  A    between atoms: _292  and  _293
REMARK  130  A    between atoms: _293  and  _294
REMARK  131  A    between atoms: _296  and  _298
REMARK  132  A    between atoms: _298  and  _299
REMARK  133  A    between atoms: _298  and  _301
REMARK  134  A    between atoms: _301  and  _302
REMARK  135  A    between atoms: _302  and  _303
REMARK  136  A    between atoms: _306  and  _308
REMARK  137  A    between atoms: _308  and  _309
REMARK  138  A    between atoms: _308  and  _311
REMARK  139  A    between atoms: _311  and  _312
REMARK  140  A    between atoms: _317  and  _318
REMARK  141  A    between atoms: _320  and  _322
REMARK  142  A    between atoms: _322  and  _323
REMARK  143  A    between atoms: _326  and  _328
REMARK  144  A    between atoms: _328  and  _329
REMARK  145  A    between atoms: _328  and  _331
REMARK  146  A    between atoms: _331  and  _332
REMARK  147  A    between atoms: _337  and  _339
REMARK  148  A    between atoms: _339  and  _340
REMARK  149  A    between atoms: _342  and  _344
REMARK  150  A    between atoms: _344  and  _345
REMARK  151  A    between atoms: _347  and  _349
REMARK  152  A    between atoms: _349  and  _350
REMARK  153  A    between atoms: _349  and  _352
REMARK  154  A    between atoms: _352  and  _353
REMARK  155  A    between atoms: _353  and  _354
REMARK  156  A    between atoms: _357  and  _359
REMARK  157  A    between atoms: _359  and  _360
REMARK  158  A    between atoms: _359  and  _362
REMARK  159  A    between atoms: _362  and  _363
REMARK  160  A    between atoms: _369  and  _371
REMARK  161  A    between atoms: _371  and  _372
REMARK  162  A    between atoms: _371  and  _374
REMARK  163  A    between atoms: _374  and  _375
REMARK  164  A    between atoms: _381  and  _383
REMARK  165  A    between atoms: _383  and  _384
REMARK  166  A    between atoms: _383  and  _386
REMARK  167  A    between atoms: _386  and  _387
REMARK  168  A    between atoms: _392  and  _393
REMARK  169  A    between atoms: _395  and  _397
REMARK  170  A    between atoms: _397  and  _398
REMARK  171  A    between atoms: _397  and  _400
REMARK  172  A    between atoms: _400  and  _401
REMARK  173  A    between atoms: _404  and  _406
REMARK  174  A    between atoms: _406  and  _407
REMARK  175  A    between atoms: _406  and  _409
REMARK  176  A    between atoms: _409  and  _410
REMARK  177  A    between atoms: _410  and  _411
REMARK  178  A    between atoms: _411  and  _412
REMARK  179  A    between atoms: _412  and  _413
REMARK  180  A    between atoms: _417  and  _419
REMARK  181  A    between atoms: _419  and  _420
REMARK  182  A    between atoms: _419  and  _422
REMARK  183  A    between atoms: _422  and  _423
REMARK  184  A    between atoms: _426  and  _428
REMARK  185  A    between atoms: _428  and  _429
REMARK  186  A    between atoms: _428  and  _431
REMARK  187  A    between atoms: _431  and  _432
REMARK  188  A    between atoms: _432  and  _433
REMARK  189  A    between atoms: _436  and  _438
REMARK  190  A    between atoms: _438  and  _439
REMARK  191  A    between atoms: _438  and  _441
REMARK  192  A    between atoms: _441  and  _442
REMARK  193  A    between atoms: _447  and  _449
REMARK  194  A    between atoms: _449  and  _450
REMARK  195  A    between atoms: _449  and  _452
REMARK  196  A    between atoms: _452  and  _453
REMARK  197  A    between atoms: _456  and  _458
REMARK  198  A    between atoms: _458  and  _459
REMARK  199  A    between atoms: _458  and  _461
REMARK  200  A    between atoms: _461  and  _462
REMARK  201  A    between atoms: _462  and  _463
REMARK  202  A    between atoms: _465  and  _467
REMARK  203  A    between atoms: _467  and  _468
REMARK  204  A    between atoms: _467  and  _470
REMARK  205  A    between atoms: _470  and  _471
REMARK  206  A    between atoms: _474  and  _476
REMARK  207  A    between atoms: _476  and  _477
REMARK  208  A    between atoms: _476  and  _479
REMARK  209  A    between atoms: _479  and  _480
REMARK  210  A    between atoms: _480  and  _481
REMARK  211  A    between atoms: _481  and  _482
REMARK  212  A    between atoms: _482  and  _483
REMARK  213  A    between atoms: _487  and  _489
REMARK  214  A    between atoms: _489  and  _490
REMARK  215  A    between atoms: _489  and  _492
REMARK  216  A    between atoms: _492  and  _493
REMARK  217  A    between atoms: _496  and  _498
REMARK  218  A    between atoms: _498  and  _499
REMARK  219  A    between atoms: _498  and  _501
REMARK  220  A    between atoms: _501  and  _502
REMARK  221  A    between atoms: _505  and  _507
REMARK  222  A    between atoms: _507  and  _508
REMARK  223  A    between atoms: _507  and  _510
REMARK  224  A    between atoms: _510  and  _511
REMARK  225  A    between atoms: _514  and  _516
REMARK  226  A    between atoms: _516  and  _517
REMARK  227  A    between atoms: _516  and  _519
REMARK  228  A    between atoms: _519  and  _520
REMARK  229  A    between atoms: _526  and  _528
REMARK  230  A    between atoms: _528  and  _529
REMARK  231  A    between atoms: _531  and  _533
REMARK  232  A    between atoms: _533  and  _534
REMARK  233  A    between atoms: _533  and  _536
REMARK  234  A    between atoms: _536  and  _537
REMARK  235  A    between atoms: _540  and  _542
REMARK  236  A    between atoms: _542  and  _543
REMARK  237  A    between atoms: _542  and  _545
REMARK  238  A    between atoms: _547  and  _549
REMARK  239  A    between atoms: _549  and  _550
REMARK  240  A    between atoms: _549  and  _552
REMARK  241  A    between atoms: _552  and  _553
REMARK  242  A    between atoms: _559  and  _561
REMARK  243  A    between atoms: _561  and  _562
REMARK  244  A    between atoms: _561  and  _564
REMARK  245  A    between atoms: _564  and  _565
REMARK  246  A    between atoms: _568  and  _570
REMARK  247  A    between atoms: _570  and  _571
REMARK  248  A    between atoms: _570  and  _573
REMARK  249  A    between atoms: _573  and  _574
REMARK  250  A    between atoms: _574  and  _575
REMARK  251  A    between atoms: _578  and  _580
REMARK  252  A    between atoms: _580  and  _581
REMARK  253  A    between atoms: _580  and  _583
REMARK  254  A    between atoms: _583  and  _584
REMARK  255  A    between atoms: _590  and  _592
REMARK  256  A    between atoms: _592  and  _593
REMARK  257  A    between atoms: _592  and  _595
REMARK  258  A    between atoms: _595  and  _596
REMARK                            x       y       z     vdW  Elec       q    Type
REMARK                         _______ _______ _______ _____ _____    ______ ____
ROOT
ATOM      1  O   HOH     1      23.347 -24.066   4.559  0.00  0.00    +0.000 OA
ENDROOT
TORSDOF 0
REMARK  Name = ../refined-set-2016/3d0e/3d0e_pocket.pdb
REMARK  258 active torsions:
REMARK  status: ('A' for Active; 'I' for Inactive)
REMARK    1  A    between atoms: _1  and  _3
REMARK    2  A    between atoms: _3  and  _4
REMARK    3  A    between atoms: _3  and  _6
REMARK    4  A    between atoms: _6  and  _7
REMARK    5  A    between atoms: _10  and  _12
REMARK    6  A    between atoms: _12  and  _13
REMARK    7  A    between atoms: _12  and  _15
REMARK    8  A    between atoms: _15  and  _16
REMARK    9  A    between atoms: _19  and  _21
REMARK   10  A    between atoms: _21  and  _22
REMARK   11  A    between atoms: _24  and  _26
REMARK   12  A    between atoms: _26  and  _27
REMARK   13  A    between atoms: _26  and  _29
REMARK   14  A    between atoms: _29  and  _30
REMARK   15  A    between atoms: _30  and  _31
REMARK   16  A    between atoms: _31  and  _32
REMARK   17  A    between atoms: _32  and  _33
REMARK   18  A    between atoms: _37  and  _39
REMARK   19  A    between atoms: _39  and  _40
REMARK   20  A    between atoms: _42  and  _44
REMARK   21  A    between atoms: _44  and  _45
REMARK   22  A    between atoms: _44  and  _47
REMARK   23  A    between atoms: _47  and  _48
REMARK   24  A    between atoms: _51  and  _53
REMARK   25  A    between atoms: _53  and  _54
REMARK   26  A    between atoms: _53  and  _56
REMARK   27  A    between atoms: _56  and  _57
REMARK   28  A    between atoms: _63  and  _65
REMARK   29  A    between atoms: _65  and  _66
REMARK   30  A    between atoms: _68  and  _70
REMARK   31  A    between atoms: _70  and  _71
REMARK   32  A    between atoms: _70  and  _73
REMARK   33  A    between atoms: _73  and  _74
REMARK   34  A    between atoms: _74  and  _75
REMARK   35  A    between atoms: _75  and  _76
REMARK   36  A    between atoms: _76  and  _77
REMARK   37  A    between atoms: _81  and  _83
REMARK   38  A    between atoms: _83  and  _84
REMARK   39  A    between atoms: _83  and  _86
REMARK   40  A    between atoms: _89  and  _91
REMARK   41  A    between atoms: _91  and  _92
REMARK   42  A    between atoms: _91  and  _94
REMARK   43  A    between atoms: _94  and  _95
REMARK   44  A    between atoms: _98  and  _100
REMARK   45  A    between atoms: _100  and  _101
REMARK   46  A    between atoms: _100  and  _103
REMARK   47  A    between atoms: _103  and  _104
REMARK   48  A    between atoms: _107  and  _109
REMARK   49  A    between atoms: _109  and  _110
REMARK   50  A    between atoms: _109  and  _112
REMARK   51  A    between atoms: _112  and  _113
REMARK   52  A    between atoms: _118  and  _119
REMARK   53  A    between atoms: _121  and  _123
REMARK   54  A    between atoms: _123  and  _124
REMARK   55  A    between atoms: _127  and  _129
REMARK   56  A    between atoms: _129  and  _130
REMARK   57  A    between atoms: _129  and  _132
REMARK   58  A    between atoms: _132  and  _133
REMARK   59  A    between atoms: _133  and  _134
REMARK   60  A    between atoms: _136  and  _138
REMARK   61  A    between atoms: _138  and  _139
REMARK   62  A    between atoms: _138  and  _141
REMARK   63  A    between atoms: _141  and  _142
REMARK   64  A    between atoms: _142  and  _143
REMARK   65  A    between atoms: _143  and  _144
REMARK   66  A    between atoms: _144  and  _145
REMARK   67  A    between atoms: _149  and  _151
REMARK   68  A    between atoms: _151  and  _152
REMARK   69  A    between atoms: _151  and  _154
REMARK   70  A    between atoms: _154  and  _155
REMARK   71  A    between atoms: _158  and  _160
REMARK   72  A    between atoms: _160  and  _161
REMARK   73  A    between atoms: _160  and  _163
REMARK   74  A    between atoms: _163  and  _164
REMARK   75  A    between atoms: _167  and  _169
REMARK   76  A    between atoms: _169  and  _170
REMARK   77  A    between atoms: _169  and  _172
REMARK   78  A    between atoms: _172  and  _173
REMARK   79  A    between atoms: _173  and  _174
REMARK   80  A    between atoms: _177  and  _179
REMARK   81  A    between atoms: _179  and  _180
REMARK   82  A    between atoms: _179  and  _182
REMARK   83  A    between atoms: _182  and  _183
REMARK   84  A    between atoms: _185  and  _187
REMARK   85  A    between atoms: _187  and  _188
REMARK   86  A    between atoms: _187  and  _190
REMARK   87  A    between atoms: _190  and  _191
REMARK   88  A    between atoms: _194  and  _196
REMARK   89  A    between atoms: _196  and  _197
REMARK   90  A    between atoms: _196  and  _199
REMARK   91  A    between atoms: _199  and  _200
REMARK   92  A    between atoms: _203  and  _205
REMARK   93  A    between atoms: _205  and  _206
REMARK   94  A    between atoms: _205  and  _208
REMARK   95  A    between atoms: _208  and  _209
REMARK   96  A    between atoms: _212  and  _214
REMARK   97  A    between atoms: _214  and  _215
REMARK   98  A    between atoms: _218  and  _220
REMARK   99  A    between atoms: _220  and  _221
REMARK  100  A    between atoms: _220  and  _223
REMARK  101  A    between atoms: _223  and  _224
REMARK  102  A    between atoms: _227  and  _229
REMARK  103  A    between atoms: _229  and  _230
REMARK  104  A    between atoms: _229  and  _232
REMARK  105  A    between atoms: _232  and  _233
REMARK  106  A    between atoms: _233  and  _234
REMARK  107  A    between atoms: _234  and  _235
REMARK  108  A    between atoms: _235  and  _236
REMARK  109  A    between atoms: _240  and  _242
REMARK  110  A    between atoms: _242  and  _243
REMARK  111  A    between atoms: _242  and  _245
REMARK  112  A    between atoms: _245  and  _246
REMARK  113  A    between atoms: _251  and  _252
REMARK  114  A    between atoms: _254  and  _256
REMARK  115  A    between atoms: _256  and  _257
REMARK  116  A    between atoms: _260  and  _262
REMARK  117  A    between atoms: _262  and  _263
REMARK  118  A    between atoms: _262  and  _265
REMARK  119  A    between atoms: _267  and  _269
REMARK  120  A    between atoms: _269  and  _270
REMARK  121  A    between atoms: _269  and  _272
REMARK  122  A    between atoms: _272  and  _273
REMARK  123  A    between atoms: _279  and  _281
REMARK  124  A    between atoms: _281  and  _282
REMARK  125  A    between atoms: _281  and  _284
REMARK  126  A    between atoms: _287  and  _289
REMARK  127  A    between atoms: _289  and  _290
REMARK  128  A    between atoms: _289  and  _292
REMARK  129  A    between atoms: _292  and  _293
REMARK  130  A    between atoms: _293  and  _294
REMARK  131  A    between atoms: _296  and  _298
REMARK  132  A    between atoms: _298  and  _299
REMARK  133  A    between atoms: _298  and  _301
REMARK  134  A    between atoms: _301  and  _302
REMARK  135  A    between atoms: _302  and  _303
REMARK  136  A    between atoms: _306  and  _308
REMARK  137  A    between atoms: _308  and  _309
REMARK  138  A    between atoms: _308  and  _311
REMARK  139  A    between atoms: _311  and  _312
REMARK  140  A    between atoms: _317  and  _318
REMARK  141  A    between atoms: _320  and  _322
REMARK  142  A    between atoms: _322  and  _323
REMARK  143  A    between atoms: _326  and  _328
REMARK  144  A    between atoms: _328  and  _329
REMARK  145  A    between atoms: _328  and  _331
REMARK  146  A    between atoms: _331  and  _332
REMARK  147  A    between atoms: _337  and  _339
REMARK  148  A    between atoms: _339  and  _340
REMARK  149  A    between atoms: _342  and  _344
REMARK  150  A    between atoms: _344  and  _345
REMARK  151  A    between atoms: _347  and  _349
REMARK  152  A    between atoms: _349  and  _350
REMARK  153  A    between atoms: _349  and  _352
REMARK  154  A    between atoms: _352  and  _353
REMARK  155  A    between atoms: _353  and  _354
REMARK  156  A    between atoms: _357  and  _359
REMARK  157  A    between atoms: _359  and  _360
REMARK  158  A    between atoms: _359  and  _362
REMARK  159  A    between atoms: _362  and  _363
REMARK  160  A    between atoms: _369  and  _371
REMARK  161  A    between atoms: _371  and  _372
REMARK  162  A    between atoms: _371  and  _374
REMARK  163  A    between atoms: _374  and  _375
REMARK  164  A    between atoms: _381  and  _383
REMARK  165  A    between atoms: _383  and  _384
REMARK  166  A    between atoms: _383  and  _386
REMARK  167  A    between atoms: _386  and  _387
REMARK  168  A    between atoms: _392  and  _393
REMARK  169  A    between atoms: _395  and  _397
REMARK  170  A    between atoms: _397  and  _398
REMARK  171  A    between atoms: _397  and  _400
REMARK  172  A    between atoms: _400  and  _401
REMARK  173  A    between atoms: _404  and  _406
REMARK  174  A    between atoms: _406  and  _407
REMARK  175  A    between atoms: _406  and  _409
REMARK  176  A    between atoms: _409  and  _410
REMARK  177  A    between atoms: _410  and  _411
REMARK  178  A    between atoms: _411  and  _412
REMARK  179  A    between atoms: _412  and  _413
REMARK  180  A    between atoms: _417  and  _419
REMARK  181  A    between atoms: _419  and  _420
REMARK  182  A    between atoms: _419  and  _422
REMARK  183  A    between atoms: _422  and  _423
REMARK  184  A    between atoms: _426  and  _428
REMARK  185  A    between atoms: _428  and  _429
REMARK  186  A    between atoms: _428  and  _431
REMARK  187  A    between atoms: _431  and  _432
REMARK  188  A    between atoms: _432  and  _433
REMARK  189  A    between atoms: _436  and  _438
REMARK  190  A    between atoms: _438  and  _439
REMARK  191  A    between atoms: _438  and  _441
REMARK  192  A    between atoms: _441  and  _442
REMARK  193  A    between atoms: _447  and  _449
REMARK  194  A    between atoms: _449  and  _450
REMARK  195  A    between atoms: _449  and  _452
REMARK  196  A    between atoms: _452  and  _453
REMARK  197  A    between atoms: _456  and  _458
REMARK  198  A    between atoms: _458  and  _459
REMARK  199  A    between atoms: _458  and  _461
REMARK  200  A    between atoms: _461  and  _462
REMARK  201  A    between atoms: _462  and  _463
REMARK  202  A    between atoms: _465  and  _467
REMARK  203  A    between atoms: _467  and  _468
REMARK  204  A    between atoms: _467  and  _470
REMARK  205  A    between atoms: _470  and  _471
REMARK  206  A    between atoms: _474  and  _476
REMARK  207  A    between atoms: _476  and  _477
REMARK  208  A    between atoms: _476  and  _479
REMARK  209  A    between atoms: _479  and  _480
REMARK  210  A    between atoms: _480  and  _481
REMARK  211  A    between atoms: _481  and  _482
REMARK  212  A    between atoms: _482  and  _483
REMARK  213  A    between atoms: _487  and  _489
REMARK  214  A    between atoms: _489  and  _490
REMARK  215  A    between atoms: _489  and  _492
REMARK  216  A    between atoms: _492  and  _493
REMARK  217  A    between atoms: _496  and  _498
REMARK  218  A    between atoms: _498  and  _499
REMARK  219  A    between atoms: _498  and  _501
REMARK  220  A    between atoms: _501  and  _502
REMARK  221  A    between atoms: _505  and  _507
REMARK  222  A    between atoms: _507  and  _508
REMARK  223  A    between atoms: _507  and  _510
REMARK  224  A    between atoms: _510  and  _511
REMARK  225  A    between atoms: _514  and  _516
REMARK  226  A    between atoms: _516  and  _517
REMARK  227  A    between atoms: _516  and  _519
REMARK  228  A    between atoms: _519  and  _520
REMARK  229  A    between atoms: _526  and  _528
REMARK  230  A    between atoms: _528  and  _529
REMARK  231  A    between atoms: _531  and  _533
REMARK  232  A    between atoms: _533  and  _534
REMARK  233  A    between atoms: _533  and  _536
REMARK  234  A    between atoms: _536  and  _537
REMARK  235  A    between atoms: _540  and  _542
REMARK  236  A    between atoms: _542  and  _543
REMARK  237  A    between atoms: _542  and  _545
REMARK  238  A    between atoms: _547  and  _549
REMARK  239  A    between atoms: _549  and  _550
REMARK  240  A    between atoms: _549  and  _552
REMARK  241  A    between atoms: _552  and  _553
REMARK  242  A    between atoms: _559  and  _561
REMARK  243  A    between atoms: _561  and  _562
REMARK  244  A    between atoms: _561  and  _564
REMARK  245  A    between atoms: _564  and  _565
REMARK  246  A    between atoms: _568  and  _570
REMARK  247  A    between atoms: _570  and  _571
REMARK  248  A    between atoms: _570  and  _573
REMARK  249  A    between atoms: _573  and  _574
REMARK  250  A    between atoms: _574  and  _575
REMARK  251  A    between atoms: _578  and  _580
REMARK  252  A    between atoms: _580  and  _581
REMARK  253  A    between atoms: _580  and  _583
REMARK  254  A    between atoms: _583  and  _584
REMARK  255  A    between atoms: _590  and  _592
REMARK  256  A    between atoms: _592  and  _593
REMARK  257  A    between atoms: _592  and  _595
REMARK  258  A    between atoms: _595  and  _596
REMARK                            x       y       z     vdW  Elec       q    Type
REMARK                         _______ _______ _______ _____ _____    ______ ____
ROOT
ATOM      1  O   HOH     1      19.773 -23.321   5.276  0.00  0.00    +0.000 OA
ENDROOT
TORSDOF 0
