REMARK  Name = ../refined-set-2016/3ff3/3ff3_pocket.pdb
REMARK  177 active torsions:
REMARK  status: ('A' for Active; 'I' for Inactive)
REMARK    1  A    between atoms: _1  and  _3
REMARK    2  A    between atoms: _3  and  _4
REMARK    3  A    between atoms: _3  and  _6
REMARK    4  A    between atoms: _6  and  _7
REMARK    5  A    between atoms: _13  and  _15
REMARK    6  A    between atoms: _15  and  _16
REMARK    7  A    between atoms: _15  and  _18
REMARK    8  A    between atoms: _18  and  _19
REMARK    9  A    between atoms: _25  and  _27
REMARK   10  A    between atoms: _27  and  _28
REMARK   11  A    between atoms: _27  and  _30
REMARK   12  A    between atoms: _30  and  _31
REMARK   13  A    between atoms: _31  and  _32
REMARK   14  A    between atoms: _32  and  _33
REMARK   15  A    between atoms: _42  and  _44
REMARK   16  A    between atoms: _44  and  _45
REMARK   17  A    between atoms: _47  and  _49
REMARK   18  A    between atoms: _49  and  _50
REMARK   19  A    between atoms: _49  and  _52
REMARK   20  A    between atoms: _52  and  _53
REMARK   21  A    between atoms: _53  and  _54
REMARK   22  A    between atoms: _59  and  _61
REMARK   23  A    between atoms: _61  and  _62
REMARK   24  A    between atoms: _61  and  _64
REMARK   25  A    between atoms: _64  and  _65
REMARK   26  A    between atoms: _65  and  _66
REMARK   27  A    between atoms: _66  and  _67
REMARK   28  A    between atoms: _76  and  _78
REMARK   29  A    between atoms: _78  and  _79
REMARK   30  A    between atoms: _81  and  _83
REMARK   31  A    between atoms: _83  and  _84
REMARK   32  A    between atoms: _83  and  _86
REMARK   33  A    between atoms: _86  and  _87
REMARK   34  A    between atoms: _92  and  _94
REMARK   35  A    between atoms: _94  and  _95
REMARK   36  A    between atoms: _94  and  _97
REMARK   37  A    between atoms: _100  and  _102
REMARK   38  A    between atoms: _102  and  _103
REMARK   39  A    between atoms: _102  and  _105
REMARK   40  A    between atoms: _105  and  _106
REMARK   41  A    between atoms: _109  and  _111
REMARK   42  A    between atoms: _111  and  _112
REMARK   43  A    between atoms: _111  and  _114
REMARK   44  A    between atoms: _114  and  _115
REMARK   45  A    between atoms: _120  and  _122
REMARK   46  A    between atoms: _122  and  _123
REMARK   47  A    between atoms: _122  and  _125
REMARK   48  A    between atoms: _125  and  _126
REMARK   49  A    between atoms: _129  and  _131
REMARK   50  A    between atoms: _131  and  _132
REMARK   51  A    between atoms: _131  and  _134
REMARK   52  A    between atoms: _134  and  _135
REMARK   53  A    between atoms: _140  and  _142
REMARK   54  A    between atoms: _142  and  _143
REMARK   55  A    between atoms: _145  and  _147
REMARK   56  A    between atoms: _147  and  _148
REMARK   57  A    between atoms: _150  and  _152
REMARK   58  A    between atoms: _152  and  _153
REMARK   59  A    between atoms: _152  and  _155
REMARK   60  A    between atoms: _155  and  _156
REMARK   61  A    between atoms: _160  and  ZN_433
REMARK   62  A    between atoms: _161  and  _163
REMARK   63  A    between atoms: _163  and  _164
REMARK   64  A    between atoms: _163  and  _166
REMARK   65  A    between atoms: _166  and  _167
REMARK   66  A    between atoms: _170  and  _172
REMARK   67  A    between atoms: _172  and  _173
REMARK   68  A    between atoms: _172  and  _175
REMARK   69  A    between atoms: _175  and  _176
REMARK   70  A    between atoms: _186  and  _188
REMARK   71  A    between atoms: _188  and  _189
REMARK   72  A    between atoms: _188  and  _191
REMARK   73  A    between atoms: _191  and  _192
REMARK   74  A    between atoms: _195  and  _197
REMARK   75  A    between atoms: _197  and  _198
REMARK   76  A    between atoms: _201  and  _203
REMARK   77  A    between atoms: _203  and  _204
REMARK   78  A    between atoms: _203  and  _206
REMARK   79  A    between atoms: _206  and  _207
REMARK   80  A    between atoms: _207  and  _208
REMARK   81  A    between atoms: _211  and  _213
REMARK   82  A    between atoms: _213  and  _214
REMARK   83  A    between atoms: _213  and  _216
REMARK   84  A    between atoms: _216  and  _217
REMARK   85  A    between atoms: _217  and  _218
REMARK   86  A    between atoms: _218  and  _220
REMARK   87  A    between atoms: _220  and  ZN_432
REMARK   88  A    between atoms: _221  and  _223
REMARK   89  A    between atoms: _223  and  _224
REMARK   90  A    between atoms: _223  and  _226
REMARK   91  A    between atoms: _226  and  _227
REMARK   92  A    between atoms: _233  and  _235
REMARK   93  A    between atoms: _235  and  _236
REMARK   94  A    between atoms: _238  and  _240
REMARK   95  A    between atoms: _240  and  _241
REMARK   96  A    between atoms: _240  and  _243
REMARK   97  A    between atoms: _243  and  _244
REMARK   98  A    between atoms: _247  and  _249
REMARK   99  A    between atoms: _249  and  _250
REMARK  100  A    between atoms: _249  and  _252
REMARK  101  A    between atoms: _252  and  _253
REMARK  102  A    between atoms: _256  and  _258
REMARK  103  A    between atoms: _258  and  _259
REMARK  104  A    between atoms: _258  and  _261
REMARK  105  A    between atoms: _261  and  _262
REMARK  106  A    between atoms: _267  and  _269
REMARK  107  A    between atoms: _269  and  _270
REMARK  108  A    between atoms: _269  and  _272
REMARK  109  A    between atoms: _272  and  _273
REMARK  110  A    between atoms: _273  and  _274
REMARK  111  A    between atoms: _274  and  ZN_433
REMARK  112  A    between atoms: _276  and  _278
REMARK  113  A    between atoms: _278  and  _279
REMARK  114  A    between atoms: _278  and  _281
REMARK  115  A    between atoms: _281  and  _282
REMARK  116  A    between atoms: _284  and  _286
REMARK  117  A    between atoms: _286  and  _287
REMARK  118  A    between atoms: _286  and  _289
REMARK  119  A    between atoms: _289  and  _290
REMARK  120  A    between atoms: _292  and  _294
REMARK  121  A    between atoms: _294  and  _295
REMARK  122  A    between atoms: _297  and  _299
REMARK  123  A    between atoms: _299  and  _300
REMARK  124  A    between atoms: _299  and  _302
REMARK  125  A    between atoms: _302  and  _303
REMARK  126  A    between atoms: _305  and  _307
REMARK  127  A    between atoms: _307  and  _308
REMARK  128  A    between atoms: _307  and  _310
REMARK  129  A    between atoms: _310  and  _311
REMARK  130  A    between atoms: _314  and  _316
REMARK  131  A    between atoms: _316  and  _317
REMARK  132  A    between atoms: _316  and  _319
REMARK  133  A    between atoms: _319  and  _320
REMARK  134  A    between atoms: _320  and  _321
REMARK  135  A    between atoms: _324  and  _326
REMARK  136  A    between atoms: _326  and  _327
REMARK  137  A    between atoms: _326  and  _329
REMARK  138  A    between atoms: _329  and  _330
REMARK  139  A    between atoms: _330  and  _331
REMARK  140  A    between atoms: _331  and  _332
REMARK  141  A    between atoms: _341  and  _343
REMARK  142  A    between atoms: _343  and  _344
REMARK  143  A    between atoms: _343  and  _346
REMARK  144  A    between atoms: _346  and  _347
REMARK  145  A    between atoms: _347  and  _348
REMARK  146  A    between atoms: _348  and  _349
REMARK  147  A    between atoms: _358  and  _360
REMARK  148  A    between atoms: _360  and  _361
REMARK  149  A    between atoms: _360  and  _363
REMARK  150  A    between atoms: _363  and  _364
REMARK  151  A    between atoms: _366  and  _368
REMARK  152  A    between atoms: _368  and  _369
REMARK  153  A    between atoms: _368  and  _371
REMARK  154  A    between atoms: _371  and  _372
REMARK  155  A    between atoms: _377  and  _378
REMARK  156  A    between atoms: _380  and  _382
REMARK  157  A    between atoms: _382  and  _383
REMARK  158  A    between atoms: _382  and  _385
REMARK  159  A    between atoms: _385  and  _386
REMARK  160  A    between atoms: _390  and  ZN_432
REMARK  161  A    between atoms: _391  and  _393
REMARK  162  A    between atoms: _393  and  _394
REMARK  163  A    between atoms: _393  and  _396
REMARK  164  A    between atoms: _396  and  _397
REMARK  165  A    between atoms: _402  and  _403
REMARK  166  A    between atoms: _405  and  _407
REMARK  167  A    between atoms: _407  and  _408
REMARK  168  A    between atoms: _407  and  _410
REMARK  169  A    between atoms: _410  and  _411
REMARK  170  A    between atoms: _411  and  _412
REMARK  171  A    between atoms: _412  and  _413
REMARK  172  A    between atoms: _413  and  _414
REMARK  173  A    between atoms: _418  and  _420
REMARK  174  A    between atoms: _420  and  _421
REMARK  175  A    between atoms: _420  and  _423
REMARK  176  A    between atoms: _423  and  _424
REMARK  177  A    between atoms: _429  and  _430
REMARK                            x       y       z     vdW  Elec       q    Type
REMARK                         _______ _______ _______ _____ _____    ______ ____
ROOT
ATOM      1  CB  PHE A   1      10.919  32.820  20.840  0.00  0.00    +0.051 C 
ENDROOT
BRANCH   1   2
ATOM      2  CG  PHE A   1      10.227  34.104  21.211  0.00  0.00    -0.020 A 
ATOM      3  CD2 PHE A   1       8.884  34.136  21.616  0.00  0.00    -0.004 A 
ATOM      4  CE2 PHE A   1       8.252  35.358  21.900  0.00  0.00    -0.000 A 
ATOM      5  CZ  PHE A   1       9.009  36.532  21.871  0.00  0.00    -0.000 A 
ATOM      6  CE1 PHE A   1      10.344  36.511  21.501  0.00  0.00    -0.000 A 
ATOM      7  CD1 PHE A   1      10.926  35.312  21.214  0.00  0.00    -0.004 A 
ENDBRANCH   1   2
BRANCH   1   8
ATOM      8  CA  PHE A   1      11.307  32.004  22.070  0.00  0.00    +0.137 C 
BRANCH   8   9
ATOM      9  N   PHE A   1      12.170  32.687  23.034  0.00  0.00    -0.239 NA
ATOM     10  H   PHE A   1      11.879  32.640  24.031  0.00  0.00    +0.142 HD
ENDBRANCH   8   9
BRANCH   8  11
ATOM     11  C   PHE A   1      11.851  30.631  21.672  0.00  0.00    +0.224 C 
ATOM     12  O   PHE A   1      11.200  29.952  20.858  0.00  0.00    -0.287 OA
ENDBRANCH   8  11
ENDBRANCH   1   8
TORSDOF 4
REMARK  Name = ../refined-set-2016/3ff3/3ff3_pocket.pdb
REMARK  177 active torsions:
REMARK  status: ('A' for Active; 'I' for Inactive)
REMARK    1  A    between atoms: _1  and  _3
REMARK    2  A    between atoms: _3  and  _4
REMARK    3  A    between atoms: _3  and  _6
REMARK    4  A    between atoms: _6  and  _7
REMARK    5  A    between atoms: _13  and  _15
REMARK    6  A    between atoms: _15  and  _16
REMARK    7  A    between atoms: _15  and  _18
REMARK    8  A    between atoms: _18  and  _19
REMARK    9  A    between atoms: _25  and  _27
REMARK   10  A    between atoms: _27  and  _28
REMARK   11  A    between atoms: _27  and  _30
REMARK   12  A    between atoms: _30  and  _31
REMARK   13  A    between atoms: _31  and  _32
REMARK   14  A    between atoms: _32  and  _33
REMARK   15  A    between atoms: _42  and  _44
REMARK   16  A    between atoms: _44  and  _45
REMARK   17  A    between atoms: _47  and  _49
REMARK   18  A    between atoms: _49  and  _50
REMARK   19  A    between atoms: _49  and  _52
REMARK   20  A    between atoms: _52  and  _53
REMARK   21  A    between atoms: _53  and  _54
REMARK   22  A    between atoms: _59  and  _61
REMARK   23  A    between atoms: _61  and  _62
REMARK   24  A    between atoms: _61  and  _64
REMARK   25  A    between atoms: _64  and  _65
REMARK   26  A    between atoms: _65  and  _66
REMARK   27  A    between atoms: _66  and  _67
REMARK   28  A    between atoms: _76  and  _78
REMARK   29  A    between atoms: _78  and  _79
REMARK   30  A    between atoms: _81  and  _83
REMARK   31  A    between atoms: _83  and  _84
REMARK   32  A    between atoms: _83  and  _86
REMARK   33  A    between atoms: _86  and  _87
REMARK   34  A    between atoms: _92  and  _94
REMARK   35  A    between atoms: _94  and  _95
REMARK   36  A    between atoms: _94  and  _97
REMARK   37  A    between atoms: _100  and  _102
REMARK   38  A    between atoms: _102  and  _103
REMARK   39  A    between atoms: _102  and  _105
REMARK   40  A    between atoms: _105  and  _106
REMARK   41  A    between atoms: _109  and  _111
REMARK   42  A    between atoms: _111  and  _112
REMARK   43  A    between atoms: _111  and  _114
REMARK   44  A    between atoms: _114  and  _115
REMARK   45  A    between atoms: _120  and  _122
REMARK   46  A    between atoms: _122  and  _123
REMARK   47  A    between atoms: _122  and  _125
REMARK   48  A    between atoms: _125  and  _126
REMARK   49  A    between atoms: _129  and  _131
REMARK   50  A    between atoms: _131  and  _132
REMARK   51  A    between atoms: _131  and  _134
REMARK   52  A    between atoms: _134  and  _135
REMARK   53  A    between atoms: _140  and  _142
REMARK   54  A    between atoms: _142  and  _143
REMARK   55  A    between atoms: _145  and  _147
REMARK   56  A    between atoms: _147  and  _148
REMARK   57  A    between atoms: _150  and  _152
REMARK   58  A    between atoms: _152  and  _153
REMARK   59  A    between atoms: _152  and  _155
REMARK   60  A    between atoms: _155  and  _156
REMARK   61  A    between atoms: _160  and  ZN_433
REMARK   62  A    between atoms: _161  and  _163
REMARK   63  A    between atoms: _163  and  _164
REMARK   64  A    between atoms: _163  and  _166
REMARK   65  A    between atoms: _166  and  _167
REMARK   66  A    between atoms: _170  and  _172
REMARK   67  A    between atoms: _172  and  _173
REMARK   68  A    between atoms: _172  and  _175
REMARK   69  A    between atoms: _175  and  _176
REMARK   70  A    between atoms: _186  and  _188
REMARK   71  A    between atoms: _188  and  _189
REMARK   72  A    between atoms: _188  and  _191
REMARK   73  A    between atoms: _191  and  _192
REMARK   74  A    between atoms: _195  and  _197
REMARK   75  A    between atoms: _197  and  _198
REMARK   76  A    between atoms: _201  and  _203
REMARK   77  A    between atoms: _203  and  _204
REMARK   78  A    between atoms: _203  and  _206
REMARK   79  A    between atoms: _206  and  _207
REMARK   80  A    between atoms: _207  and  _208
REMARK   81  A    between atoms: _211  and  _213
REMARK   82  A    between atoms: _213  and  _214
REMARK   83  A    between atoms: _213  and  _216
REMARK   84  A    between atoms: _216  and  _217
REMARK   85  A    between atoms: _217  and  _218
REMARK   86  A    between atoms: _218  and  _220
REMARK   87  A    between atoms: _220  and  ZN_432
REMARK   88  A    between atoms: _221  and  _223
REMARK   89  A    between atoms: _223  and  _224
REMARK   90  A    between atoms: _223  and  _226
REMARK   91  A    between atoms: _226  and  _227
REMARK   92  A    between atoms: _233  and  _235
REMARK   93  A    between atoms: _235  and  _236
REMARK   94  A    between atoms: _238  and  _240
REMARK   95  A    between atoms: _240  and  _241
REMARK   96  A    between atoms: _240  and  _243
REMARK   97  A    between atoms: _243  and  _244
REMARK   98  A    between atoms: _247  and  _249
REMARK   99  A    between atoms: _249  and  _250
REMARK  100  A    between atoms: _249  and  _252
REMARK  101  A    between atoms: _252  and  _253
REMARK  102  A    between atoms: _256  and  _258
REMARK  103  A    between atoms: _258  and  _259
REMARK  104  A    between atoms: _258  and  _261
REMARK  105  A    between atoms: _261  and  _262
REMARK  106  A    between atoms: _267  and  _269
REMARK  107  A    between atoms: _269  and  _270
REMARK  108  A    between atoms: _269  and  _272
REMARK  109  A    between atoms: _272  and  _273
REMARK  110  A    between atoms: _273  and  _274
REMARK  111  A    between atoms: _274  and  ZN_433
REMARK  112  A    between atoms: _276  and  _278
REMARK  113  A    between atoms: _278  and  _279
REMARK  114  A    between atoms: _278  and  _281
REMARK  115  A    between atoms: _281  and  _282
REMARK  116  A    between atoms: _284  and  _286
REMARK  117  A    between atoms: _286  and  _287
REMARK  118  A    between atoms: _286  and  _289
REMARK  119  A    between atoms: _289  and  _290
REMARK  120  A    between atoms: _292  and  _294
REMARK  121  A    between atoms: _294  and  _295
REMARK  122  A    between atoms: _297  and  _299
REMARK  123  A    between atoms: _299  and  _300
REMARK  124  A    between atoms: _299  and  _302
REMARK  125  A    between atoms: _302  and  _303
REMARK  126  A    between atoms: _305  and  _307
REMARK  127  A    between atoms: _307  and  _308
REMARK  128  A    between atoms: _307  and  _310
REMARK  129  A    between atoms: _310  and  _311
REMARK  130  A    between atoms: _314  and  _316
REMARK  131  A    between atoms: _316  and  _317
REMARK  132  A    between atoms: _316  and  _319
REMARK  133  A    between atoms: _319  and  _320
REMARK  134  A    between atoms: _320  and  _321
REMARK  135  A    between atoms: _324  and  _326
REMARK  136  A    between atoms: _326  and  _327
REMARK  137  A    between atoms: _326  and  _329
REMARK  138  A    between atoms: _329  and  _330
REMARK  139  A    between atoms: _330  and  _331
REMARK  140  A    between atoms: _331  and  _332
REMARK  141  A    between atoms: _341  and  _343
REMARK  142  A    between atoms: _343  and  _344
REMARK  143  A    between atoms: _343  and  _346
REMARK  144  A    between atoms: _346  and  _347
REMARK  145  A    between atoms: _347  and  _348
REMARK  146  A    between atoms: _348  and  _349
REMARK  147  A    between atoms: _358  and  _360
REMARK  148  A    between atoms: _360  and  _361
REMARK  149  A    between atoms: _360  and  _363
REMARK  150  A    between atoms: _363  and  _364
REMARK  151  A    between atoms: _366  and  _368
REMARK  152  A    between atoms: _368  and  _369
REMARK  153  A    between atoms: _368  and  _371
REMARK  154  A    between atoms: _371  and  _372
REMARK  155  A    between atoms: _377  and  _378
REMARK  156  A    between atoms: _380  and  _382
REMARK  157  A    between atoms: _382  and  _383
REMARK  158  A    between atoms: _382  and  _385
REMARK  159  A    between atoms: _385  and  _386
REMARK  160  A    between atoms: _390  and  ZN_432
REMARK  161  A    between atoms: _391  and  _393
REMARK  162  A    between atoms: _393  and  _394
REMARK  163  A    between atoms: _393  and  _396
REMARK  164  A    between atoms: _396  and  _397
REMARK  165  A    between atoms: _402  and  _403
REMARK  166  A    between atoms: _405  and  _407
REMARK  167  A    between atoms: _407  and  _408
REMARK  168  A    between atoms: _407  and  _410
REMARK  169  A    between atoms: _410  and  _411
REMARK  170  A    between atoms: _411  and  _412
REMARK  171  A    between atoms: _412  and  _413
REMARK  172  A    between atoms: _413  and  _414
REMARK  173  A    between atoms: _418  and  _420
REMARK  174  A    between atoms: _420  and  _421
REMARK  175  A    between atoms: _420  and  _423
REMARK  176  A    between atoms: _423  and  _424
REMARK  177  A    between atoms: _429  and  _430
REMARK                            x       y       z     vdW  Elec       q    Type
REMARK                         _______ _______ _______ _____ _____    ______ ____
ROOT
ATOM      1  CA  ARG A   2      21.401  34.177  15.885  0.00  0.00    +0.149 C 
ENDROOT
BRANCH   1   3
ATOM      2  C   PHE A   1      21.647  35.704  14.013  0.00  0.00    +0.239 C 
ATOM      3  N   ARG A   2      21.516  35.539  15.328  0.00  0.00    -0.297 N 
ATOM      4  H   ARG A   2      21.495  36.365  15.959  0.00  0.00    +0.150 HD
ATOM      5  O   PHE A   1      21.516  34.730  13.226  0.00  0.00    -0.274 OA
BRANCH   2   6
ATOM      6  CA  PHE A   1      21.939  37.133  13.496  0.00  0.00    +0.149 C 
BRANCH   6   7
ATOM      7  N   PHE A   1      23.007  37.212  12.510  0.00  0.00    -0.238 NA
ATOM      8  H   PHE A   1      22.825  37.684  11.602  0.00  0.00    +0.142 HD
ENDBRANCH   6   7
BRANCH   6   9
ATOM      9  CB  PHE A   1      20.680  37.763  12.893  0.00  0.00    +0.053 C 
BRANCH   9  10
ATOM     10  CG  PHE A   1      19.484  37.672  13.816  0.00  0.00    -0.020 A 
ATOM     11  CD2 PHE A   1      19.466  38.322  15.075  0.00  0.00    -0.004 A 
ATOM     12  CE2 PHE A   1      18.293  38.230  15.901  0.00  0.00    -0.000 A 
ATOM     13  CZ  PHE A   1      17.207  37.513  15.459  0.00  0.00    -0.000 A 
ATOM     14  CE1 PHE A   1      17.193  36.899  14.228  0.00  0.00    -0.000 A 
ATOM     15  CD1 PHE A   1      18.357  37.000  13.393  0.00  0.00    -0.004 A 
ENDBRANCH   9  10
ENDBRANCH   6   9
ENDBRANCH   2   6
ENDBRANCH   1   3
BRANCH   1  16
ATOM     16  C   ARG A   2      20.116  33.478  15.469  0.00  0.00    +0.241 C 
ATOM     17  O   ARG A   2      20.063  32.254  15.361  0.00  0.00    -0.273 OA
ATOM     18  N   GLY A   3      19.046  34.233  15.150  0.00  0.00    -0.296 N 
ATOM     19  H   GLY A   3      19.066  35.269  15.242  0.00  0.00    +0.150 HD
BRANCH  18  20
ATOM     20  CA  GLY A   3      17.858  33.535  14.670  0.00  0.00    +0.163 C 
BRANCH  20  21
ATOM     21  C   GLY A   3      18.076  32.874  13.323  0.00  0.00    +0.229 C 
ATOM     22  O   GLY A   3      17.457  31.839  13.048  0.00  0.00    -0.286 OA
ENDBRANCH  20  21
ENDBRANCH  18  20
ENDBRANCH   1  16
BRANCH   1  23
ATOM     23  CB  ARG A   2      21.479  34.254  17.405  0.00  0.00    +0.033 C 
BRANCH  23  24
ATOM     24  CG  ARG A   2      20.262  35.011  18.030  0.00  0.00    +0.045 C 
BRANCH  24  25
ATOM     25  CD  ARG A   2      20.423  35.175  19.587  0.00  0.00    +0.174 C 
BRANCH  25  26
ATOM     26  NE  ARG A   2      21.265  36.337  19.918  0.00  0.00    -0.265 N 
ATOM     27  HE  ARG A   2      22.206  36.172  20.329  0.00  0.00    +0.259 HD
ATOM     28  CZ  ARG A   2      20.867  37.595  19.711  0.00  0.00    +0.342 C 
ATOM     29  NH2 ARG A   2      21.701  38.612  20.031  0.00  0.00    -0.292 N 
ATOM     30 HH21 ARG A   2      22.639  38.409  20.433  0.00  0.00    +0.255 HD
ATOM     31 HH22 ARG A   2      21.404  39.597  19.875  0.00  0.00    +0.255 HD
ATOM     32  NH1 ARG A   2      19.623  37.858  19.202  0.00  0.00    -0.292 N 
ATOM     33 HH11 ARG A   2      19.323  38.841  19.045  0.00  0.00    +0.255 HD
ATOM     34 HH12 ARG A   2      18.979  37.075  18.973  0.00  0.00    +0.255 HD
ENDBRANCH  25  26
ENDBRANCH  24  25
ENDBRANCH  23  24
ENDBRANCH   1  23
TORSDOF 12
REMARK  Name = ../refined-set-2016/3ff3/3ff3_pocket.pdb
REMARK  177 active torsions:
REMARK  status: ('A' for Active; 'I' for Inactive)
REMARK    1  A    between atoms: _1  and  _3
REMARK    2  A    between atoms: _3  and  _4
REMARK    3  A    between atoms: _3  and  _6
REMARK    4  A    between atoms: _6  and  _7
REMARK    5  A    between atoms: _13  and  _15
REMARK    6  A    between atoms: _15  and  _16
REMARK    7  A    between atoms: _15  and  _18
REMARK    8  A    between atoms: _18  and  _19
REMARK    9  A    between atoms: _25  and  _27
REMARK   10  A    between atoms: _27  and  _28
REMARK   11  A    between atoms: _27  and  _30
REMARK   12  A    between atoms: _30  and  _31
REMARK   13  A    between atoms: _31  and  _32
REMARK   14  A    between atoms: _32  and  _33
REMARK   15  A    between atoms: _42  and  _44
REMARK   16  A    between atoms: _44  and  _45
REMARK   17  A    between atoms: _47  and  _49
REMARK   18  A    between atoms: _49  and  _50
REMARK   19  A    between atoms: _49  and  _52
REMARK   20  A    between atoms: _52  and  _53
REMARK   21  A    between atoms: _53  and  _54
REMARK   22  A    between atoms: _59  and  _61
REMARK   23  A    between atoms: _61  and  _62
REMARK   24  A    between atoms: _61  and  _64
REMARK   25  A    between atoms: _64  and  _65
REMARK   26  A    between atoms: _65  and  _66
REMARK   27  A    between atoms: _66  and  _67
REMARK   28  A    between atoms: _76  and  _78
REMARK   29  A    between atoms: _78  and  _79
REMARK   30  A    between atoms: _81  and  _83
REMARK   31  A    between atoms: _83  and  _84
REMARK   32  A    between atoms: _83  and  _86
REMARK   33  A    between atoms: _86  and  _87
REMARK   34  A    between atoms: _92  and  _94
REMARK   35  A    between atoms: _94  and  _95
REMARK   36  A    between atoms: _94  and  _97
REMARK   37  A    between atoms: _100  and  _102
REMARK   38  A    between atoms: _102  and  _103
REMARK   39  A    between atoms: _102  and  _105
REMARK   40  A    between atoms: _105  and  _106
REMARK   41  A    between atoms: _109  and  _111
REMARK   42  A    between atoms: _111  and  _112
REMARK   43  A    between atoms: _111  and  _114
REMARK   44  A    between atoms: _114  and  _115
REMARK   45  A    between atoms: _120  and  _122
REMARK   46  A    between atoms: _122  and  _123
REMARK   47  A    between atoms: _122  and  _125
REMARK   48  A    between atoms: _125  and  _126
REMARK   49  A    between atoms: _129  and  _131
REMARK   50  A    between atoms: _131  and  _132
REMARK   51  A    between atoms: _131  and  _134
REMARK   52  A    between atoms: _134  and  _135
REMARK   53  A    between atoms: _140  and  _142
REMARK   54  A    between atoms: _142  and  _143
REMARK   55  A    between atoms: _145  and  _147
REMARK   56  A    between atoms: _147  and  _148
REMARK   57  A    between atoms: _150  and  _152
REMARK   58  A    between atoms: _152  and  _153
REMARK   59  A    between atoms: _152  and  _155
REMARK   60  A    between atoms: _155  and  _156
REMARK   61  A    between atoms: _160  and  ZN_433
REMARK   62  A    between atoms: _161  and  _163
REMARK   63  A    between atoms: _163  and  _164
REMARK   64  A    between atoms: _163  and  _166
REMARK   65  A    between atoms: _166  and  _167
REMARK   66  A    between atoms: _170  and  _172
REMARK   67  A    between atoms: _172  and  _173
REMARK   68  A    between atoms: _172  and  _175
REMARK   69  A    between atoms: _175  and  _176
REMARK   70  A    between atoms: _186  and  _188
REMARK   71  A    between atoms: _188  and  _189
REMARK   72  A    between atoms: _188  and  _191
REMARK   73  A    between atoms: _191  and  _192
REMARK   74  A    between atoms: _195  and  _197
REMARK   75  A    between atoms: _197  and  _198
REMARK   76  A    between atoms: _201  and  _203
REMARK   77  A    between atoms: _203  and  _204
REMARK   78  A    between atoms: _203  and  _206
REMARK   79  A    between atoms: _206  and  _207
REMARK   80  A    between atoms: _207  and  _208
REMARK   81  A    between atoms: _211  and  _213
REMARK   82  A    between atoms: _213  and  _214
REMARK   83  A    between atoms: _213  and  _216
REMARK   84  A    between atoms: _216  and  _217
REMARK   85  A    between atoms: _217  and  _218
REMARK   86  A    between atoms: _218  and  _220
REMARK   87  A    between atoms: _220  and  ZN_432
REMARK   88  A    between atoms: _221  and  _223
REMARK   89  A    between atoms: _223  and  _224
REMARK   90  A    between atoms: _223  and  _226
REMARK   91  A    between atoms: _226  and  _227
REMARK   92  A    between atoms: _233  and  _235
REMARK   93  A    between atoms: _235  and  _236
REMARK   94  A    between atoms: _238  and  _240
REMARK   95  A    between atoms: _240  and  _241
REMARK   96  A    between atoms: _240  and  _243
REMARK   97  A    between atoms: _243  and  _244
REMARK   98  A    between atoms: _247  and  _249
REMARK   99  A    between atoms: _249  and  _250
REMARK  100  A    between atoms: _249  and  _252
REMARK  101  A    between atoms: _252  and  _253
REMARK  102  A    between atoms: _256  and  _258
REMARK  103  A    between atoms: _258  and  _259
REMARK  104  A    between atoms: _258  and  _261
REMARK  105  A    between atoms: _261  and  _262
REMARK  106  A    between atoms: _267  and  _269
REMARK  107  A    between atoms: _269  and  _270
REMARK  108  A    between atoms: _269  and  _272
REMARK  109  A    between atoms: _272  and  _273
REMARK  110  A    between atoms: _273  and  _274
REMARK  111  A    between atoms: _274  and  ZN_433
REMARK  112  A    between atoms: _276  and  _278
REMARK  113  A    between atoms: _278  and  _279
REMARK  114  A    between atoms: _278  and  _281
REMARK  115  A    between atoms: _281  and  _282
REMARK  116  A    between atoms: _284  and  _286
REMARK  117  A    between atoms: _286  and  _287
REMARK  118  A    between atoms: _286  and  _289
REMARK  119  A    between atoms: _289  and  _290
REMARK  120  A    between atoms: _292  and  _294
REMARK  121  A    between atoms: _294  and  _295
REMARK  122  A    between atoms: _297  and  _299
REMARK  123  A    between atoms: _299  and  _300
REMARK  124  A    between atoms: _299  and  _302
REMARK  125  A    between atoms: _302  and  _303
REMARK  126  A    between atoms: _305  and  _307
REMARK  127  A    between atoms: _307  and  _308
REMARK  128  A    between atoms: _307  and  _310
REMARK  129  A    between atoms: _310  and  _311
REMARK  130  A    between atoms: _314  and  _316
REMARK  131  A    between atoms: _316  and  _317
REMARK  132  A    between atoms: _316  and  _319
REMARK  133  A    between atoms: _319  and  _320
REMARK  134  A    between atoms: _320  and  _321
REMARK  135  A    between atoms: _324  and  _326
REMARK  136  A    between atoms: _326  and  _327
REMARK  137  A    between atoms: _326  and  _329
REMARK  138  A    between atoms: _329  and  _330
REMARK  139  A    between atoms: _330  and  _331
REMARK  140  A    between atoms: _331  and  _332
REMARK  141  A    between atoms: _341  and  _343
REMARK  142  A    between atoms: _343  and  _344
REMARK  143  A    between atoms: _343  and  _346
REMARK  144  A    between atoms: _346  and  _347
REMARK  145  A    between atoms: _347  and  _348
REMARK  146  A    between atoms: _348  and  _349
REMARK  147  A    between atoms: _358  and  _360
REMARK  148  A    between atoms: _360  and  _361
REMARK  149  A    between atoms: _360  and  _363
REMARK  150  A    between atoms: _363  and  _364
REMARK  151  A    between atoms: _366  and  _368
REMARK  152  A    between atoms: _368  and  _369
REMARK  153  A    between atoms: _368  and  _371
REMARK  154  A    between atoms: _371  and  _372
REMARK  155  A    between atoms: _377  and  _378
REMARK  156  A    between atoms: _380  and  _382
REMARK  157  A    between atoms: _382  and  _383
REMARK  158  A    between atoms: _382  and  _385
REMARK  159  A    between atoms: _385  and  _386
REMARK  160  A    between atoms: _390  and  ZN_432
REMARK  161  A    between atoms: _391  and  _393
REMARK  162  A    between atoms: _393  and  _394
REMARK  163  A    between atoms: _393  and  _396
REMARK  164  A    between atoms: _396  and  _397
REMARK  165  A    between atoms: _402  and  _403
REMARK  166  A    between atoms: _405  and  _407
REMARK  167  A    between atoms: _407  and  _408
REMARK  168  A    between atoms: _407  and  _410
REMARK  169  A    between atoms: _410  and  _411
REMARK  170  A    between atoms: _411  and  _412
REMARK  171  A    between atoms: _412  and  _413
REMARK  172  A    between atoms: _413  and  _414
REMARK  173  A    between atoms: _418  and  _420
REMARK  174  A    between atoms: _420  and  _421
REMARK  175  A    between atoms: _420  and  _423
REMARK  176  A    between atoms: _423  and  _424
REMARK  177  A    between atoms: _429  and  _430
REMARK                            x       y       z     vdW  Elec       q    Type
REMARK                         _______ _______ _______ _____ _____    ______ ____
ROOT
ATOM      1  CA  VAL A   5      15.905  33.412  18.185  0.00  0.00    +0.149 C 
ENDROOT
BRANCH   1   3
ATOM      2  C   ASN A   4      16.310  35.421  19.561  0.00  0.00    +0.241 C 
ATOM      3  N   VAL A   5      15.588  34.305  19.309  0.00  0.00    -0.297 N 
ATOM      4  H   VAL A   5      14.786  34.072  19.928  0.00  0.00    +0.150 HD
ATOM      5  O   ASN A   4      17.260  35.821  18.851  0.00  0.00    -0.273 OA
BRANCH   2   6
ATOM      6  CA  ASN A   4      15.817  36.198  20.775  0.00  0.00    +0.158 C 
BRANCH   6   9
ATOM      7  C   GLY A   3      17.845  36.369  22.029  0.00  0.00    +0.243 C 
ATOM      8  O   GLY A   3      17.889  35.136  22.175  0.00  0.00    -0.273 OA
ATOM      9  N   ASN A   4      16.887  36.985  21.338  0.00  0.00    -0.297 N 
ATOM     10  H   ASN A   4      16.910  38.016  21.207  0.00  0.00    +0.150 HD
BRANCH   7  11
ATOM     11  CA  GLY A   3      18.937  37.227  22.615  0.00  0.00    +0.176 C 
BRANCH  11  13
ATOM     12  C   ARG A   2      20.729  37.007  24.219  0.00  0.00    +0.241 C 
ATOM     13  N   GLY A   3      19.521  36.635  23.828  0.00  0.00    -0.295 N 
ATOM     14  H   GLY A   3      18.988  35.929  24.375  0.00  0.00    +0.150 HD
ATOM     15  O   ARG A   2      21.478  37.708  23.518  0.00  0.00    -0.273 OA
BRANCH  12  16
ATOM     16  CA  ARG A   2      21.143  36.548  25.634  0.00  0.00    +0.149 C 
BRANCH  16  18
ATOM     17  C   GLN A   1      23.468  35.846  25.284  0.00  0.00    +0.238 C 
ATOM     18  N   ARG A   2      22.586  36.706  25.807  0.00  0.00    -0.297 N 
ATOM     19  H   ARG A   2      22.940  37.515  26.356  0.00  0.00    +0.150 HD
ATOM     20  O   GLN A   1      23.132  34.792  24.728  0.00  0.00    -0.274 OA
BRANCH  17  21
ATOM     21  CA  GLN A   1      24.953  36.215  25.420  0.00  0.00    +0.145 C 
BRANCH  21  22
ATOM     22  N   GLN A   1      25.680  35.148  26.149  0.00  0.00    -0.238 NA
ATOM     23  H   GLN A   1      26.090  34.358  25.611  0.00  0.00    +0.142 HD
ENDBRANCH  21  22
BRANCH  21  24
ATOM     24  CB  GLN A   1      25.573  36.335  24.016  0.00  0.00    +0.036 C 
BRANCH  24  25
ATOM     25  CG  GLN A   1      24.854  37.359  23.113  0.00  0.00    +0.087 C 
BRANCH  25  26
ATOM     26  CD  GLN A   1      25.154  37.208  21.632  0.00  0.00    +0.219 C 
ATOM     27  NE2 GLN A   1      26.431  36.999  21.283  0.00  0.00    -0.329 N 
ATOM     28 HE21 GLN A   1      27.160  36.890  22.017  0.00  0.00    +0.145 HD
ATOM     29 HE22 GLN A   1      26.693  36.946  20.278  0.00  0.00    +0.145 HD
ATOM     30  OE1 GLN A   1      24.249  37.344  20.789  0.00  0.00    -0.275 OA
ENDBRANCH  25  26
ENDBRANCH  24  25
ENDBRANCH  21  24
ENDBRANCH  17  21
ENDBRANCH  16  18
BRANCH  16  31
ATOM     31  CB  ARG A   2      20.408  37.412  26.674  0.00  0.00    +0.033 C 
BRANCH  31  32
ATOM     32  CG  ARG A   2      20.667  36.871  28.096  0.00  0.00    +0.045 C 
BRANCH  32  33
ATOM     33  CD  ARG A   2      20.466  37.985  29.162  0.00  0.00    +0.174 C 
BRANCH  33  34
ATOM     34  NE  ARG A   2      20.782  37.500  30.520  0.00  0.00    -0.265 N 
ATOM     35  HE  ARG A   2      19.986  37.285  31.155  0.00  0.00    +0.259 HD
ATOM     36  CZ  ARG A   2      22.010  37.319  30.987  0.00  0.00    +0.342 C 
ATOM     37  NH2 ARG A   2      22.196  36.897  32.278  0.00  0.00    -0.292 N 
ATOM     38 HH21 ARG A   2      21.374  36.719  32.890  0.00  0.00    +0.255 HD
ATOM     39 HH22 ARG A   2      23.159  36.755  32.645  0.00  0.00    +0.255 HD
ATOM     40  NH1 ARG A   2      23.085  37.554  30.179  0.00  0.00    -0.292 N 
ATOM     41 HH11 ARG A   2      24.049  37.413  30.542  0.00  0.00    +0.255 HD
ATOM     42 HH12 ARG A   2      22.940  37.874  29.200  0.00  0.00    +0.255 HD
ENDBRANCH  33  34
ENDBRANCH  32  33
ENDBRANCH  31  32
ENDBRANCH  16  31
ENDBRANCH  12  16
ENDBRANCH  11  13
ENDBRANCH   7  11
ENDBRANCH   6   9
BRANCH   6  43
ATOM     43  CB  ASN A   4      14.580  37.094  20.452  0.00  0.00    +0.114 C 
BRANCH  43  44
ATOM     44  CG  ASN A   4      14.681  37.737  19.094  0.00  0.00    +0.222 C 
ATOM     45  ND2 ASN A   4      14.944  39.075  19.081  0.00  0.00    -0.329 N 
ATOM     46 HD21 ASN A   4      15.117  39.580  19.974  0.00  0.00    +0.145 HD
ATOM     47 HD22 ASN A   4      14.971  39.591  18.178  0.00  0.00    +0.145 HD
ATOM     48  OD1 ASN A   4      14.464  37.071  18.060  0.00  0.00    -0.275 OA
ENDBRANCH  43  44
ENDBRANCH   6  43
ENDBRANCH   2   6
ENDBRANCH   1   3
BRANCH   1  49
ATOM     49  C   VAL A   5      14.702  33.257  17.240  0.00  0.00    +0.241 C 
ATOM     50  N   LEU A   6      13.862  34.316  17.147  0.00  0.00    -0.297 N 
ATOM     51  H   LEU A   6      13.986  35.142  17.767  0.00  0.00    +0.150 HD
ATOM     52  O   VAL A   5      14.589  32.233  16.557  0.00  0.00    -0.273 OA
BRANCH  50  53
ATOM     53  CA  LEU A   6      12.782  34.285  16.167  0.00  0.00    +0.149 C 
BRANCH  53  54
ATOM     54  C   LEU A   6      13.305  34.497  14.734  0.00  0.00    +0.241 C 
ATOM     55  O   LEU A   6      14.407  35.047  14.526  0.00  0.00    -0.273 OA
ATOM     56  N   ASN A   7      12.478  34.072  13.775  0.00  0.00    -0.297 N 
ATOM     57  H   ASN A   7      11.663  33.484  14.043  0.00  0.00    +0.150 HD
BRANCH  56  58
ATOM     58  CA  ASN A   7      12.673  34.401  12.361  0.00  0.00    +0.158 C 
BRANCH  58  59
ATOM     59  C   ASN A   7      11.410  35.079  11.865  0.00  0.00    +0.241 C 
ATOM     60  N   LEU A   8      11.262  36.338  12.304  0.00  0.00    -0.297 N 
ATOM     61  H   LEU A   8      12.037  36.803  12.819  0.00  0.00    +0.150 HD
ATOM     62  O   ASN A   7      10.565  34.499  11.155  0.00  0.00    -0.273 OA
BRANCH  60  63
ATOM     63  CA  LEU A   8      10.001  37.063  12.057  0.00  0.00    +0.149 C 
BRANCH  63  64
ATOM     64  C   LEU A   8       9.871  37.661  10.651  0.00  0.00    +0.241 C 
ATOM     65  O   LEU A   8       8.727  37.916  10.189  0.00  0.00    -0.273 OA
ATOM     66  N   ASN A   9      11.023  37.970  10.007  0.00  0.00    -0.297 N 
ATOM     67  H   ASN A   9      11.943  37.739  10.433  0.00  0.00    +0.150 HD
BRANCH  66  68
ATOM     68  CA  ASN A   9      10.954  38.638   8.696  0.00  0.00    +0.158 C 
BRANCH  68  69
ATOM     69  C   ASN A   9      10.032  39.859   8.705  0.00  0.00    +0.241 C 
ATOM     70  N   GLY A  10      10.156  40.644   9.770  0.00  0.00    -0.296 N 
ATOM     71  H   GLY A  10      10.746  40.366  10.580  0.00  0.00    +0.150 HD
ATOM     72  O   ASN A   9       9.299  40.097   7.748  0.00  0.00    -0.273 OA
BRANCH  70  73
ATOM     73  CA  GLY A  10       9.436  41.906   9.760  0.00  0.00    +0.163 C 
BRANCH  73  74
ATOM     74  C   GLY A  10       8.040  41.843  10.358  0.00  0.00    +0.229 C 
ATOM     75  O   GLY A  10       7.359  42.875  10.368  0.00  0.00    -0.286 OA
ENDBRANCH  73  74
ENDBRANCH  70  73
ENDBRANCH  68  69
BRANCH  68  76
ATOM     76  CB  ASN A   9      10.530  37.642   7.581  0.00  0.00    +0.114 C 
BRANCH  76  77
ATOM     77  CG  ASN A   9      11.531  36.535   7.396  0.00  0.00    +0.222 C 
ATOM     78  OD1 ASN A   9      12.746  36.803   7.409  0.00  0.00    -0.275 OA
ATOM     79  ND2 ASN A   9      11.050  35.346   7.168  0.00  0.00    -0.329 N 
ATOM     80 HD21 ASN A   9      10.022  35.192   7.172  0.00  0.00    +0.145 HD
ATOM     81 HD22 ASN A   9      11.694  34.551   6.982  0.00  0.00    +0.145 HD
ENDBRANCH  76  77
ENDBRANCH  68  76
ENDBRANCH  66  68
ENDBRANCH  63  64
BRANCH  63  82
ATOM     82  CB  LEU A   8       9.881  38.296  12.972  0.00  0.00    +0.029 C 
BRANCH  82  83
ATOM     83  CG  LEU A   8       9.582  37.942  14.430  0.00  0.00    +0.002 C 
ATOM     84  CD2 LEU A   8       9.677  39.158  15.319  0.00  0.00    +0.000 C 
ATOM     85  CD1 LEU A   8       8.190  37.327  14.552  0.00  0.00    +0.000 C 
ENDBRANCH  82  83
ENDBRANCH  63  82
ENDBRANCH  60  63
ENDBRANCH  58  59
BRANCH  58  86
ATOM     86  CB  ASN A   7      12.873  33.069  11.617  0.00  0.00    +0.114 C 
BRANCH  86  87
ATOM     87  CG  ASN A   7      13.148  33.253  10.155  0.00  0.00    +0.222 C 
ATOM     88  ND2 ASN A   7      13.820  34.286   9.848  0.00  0.00    -0.329 N 
ATOM     89 HD21 ASN A   7      14.109  34.957  10.588  0.00  0.00    +0.145 HD
ATOM     90 HD22 ASN A   7      14.082  34.460   8.857  0.00  0.00    +0.145 HD
ATOM     91  OD1 ASN A   7      12.782  32.431   9.330  0.00  0.00    -0.275 OA
ENDBRANCH  86  87
ENDBRANCH  58  86
ENDBRANCH  56  58
ENDBRANCH  53  54
BRANCH  53  92
ATOM     92  CB  LEU A   6      11.798  35.446  16.425  0.00  0.00    +0.029 C 
BRANCH  92  93
ATOM     93  CG  LEU A   6      11.004  35.308  17.738  0.00  0.00    +0.002 C 
ATOM     94  CD2 LEU A   6      10.243  36.638  17.963  0.00  0.00    +0.000 C 
ATOM     95  CD1 LEU A   6       9.990  34.160  17.664  0.00  0.00    +0.000 C 
ENDBRANCH  92  93
ENDBRANCH  53  92
ENDBRANCH  50  53
ENDBRANCH   1  49
BRANCH   1  96
ATOM     96  CB  VAL A   5      16.455  32.055  18.693  0.00  0.00    +0.027 C 
ATOM     97  CG2 VAL A   5      15.501  31.466  19.714  0.00  0.00    +0.002 C 
ATOM     98  CG1 VAL A   5      17.837  32.275  19.274  0.00  0.00    +0.002 C 
ENDBRANCH   1  96
TORSDOF 38
REMARK  Name = ../refined-set-2016/3ff3/3ff3_pocket.pdb
REMARK  177 active torsions:
REMARK  status: ('A' for Active; 'I' for Inactive)
REMARK    1  A    between atoms: _1  and  _3
REMARK    2  A    between atoms: _3  and  _4
REMARK    3  A    between atoms: _3  and  _6
REMARK    4  A    between atoms: _6  and  _7
REMARK    5  A    between atoms: _13  and  _15
REMARK    6  A    between atoms: _15  and  _16
REMARK    7  A    between atoms: _15  and  _18
REMARK    8  A    between atoms: _18  and  _19
REMARK    9  A    between atoms: _25  and  _27
REMARK   10  A    between atoms: _27  and  _28
REMARK   11  A    between atoms: _27  and  _30
REMARK   12  A    between atoms: _30  and  _31
REMARK   13  A    between atoms: _31  and  _32
REMARK   14  A    between atoms: _32  and  _33
REMARK   15  A    between atoms: _42  and  _44
REMARK   16  A    between atoms: _44  and  _45
REMARK   17  A    between atoms: _47  and  _49
REMARK   18  A    between atoms: _49  and  _50
REMARK   19  A    between atoms: _49  and  _52
REMARK   20  A    between atoms: _52  and  _53
REMARK   21  A    between atoms: _53  and  _54
REMARK   22  A    between atoms: _59  and  _61
REMARK   23  A    between atoms: _61  and  _62
REMARK   24  A    between atoms: _61  and  _64
REMARK   25  A    between atoms: _64  and  _65
REMARK   26  A    between atoms: _65  and  _66
REMARK   27  A    between atoms: _66  and  _67
REMARK   28  A    between atoms: _76  and  _78
REMARK   29  A    between atoms: _78  and  _79
REMARK   30  A    between atoms: _81  and  _83
REMARK   31  A    between atoms: _83  and  _84
REMARK   32  A    between atoms: _83  and  _86
REMARK   33  A    between atoms: _86  and  _87
REMARK   34  A    between atoms: _92  and  _94
REMARK   35  A    between atoms: _94  and  _95
REMARK   36  A    between atoms: _94  and  _97
REMARK   37  A    between atoms: _100  and  _102
REMARK   38  A    between atoms: _102  and  _103
REMARK   39  A    between atoms: _102  and  _105
REMARK   40  A    between atoms: _105  and  _106
REMARK   41  A    between atoms: _109  and  _111
REMARK   42  A    between atoms: _111  and  _112
REMARK   43  A    between atoms: _111  and  _114
REMARK   44  A    between atoms: _114  and  _115
REMARK   45  A    between atoms: _120  and  _122
REMARK   46  A    between atoms: _122  and  _123
REMARK   47  A    between atoms: _122  and  _125
REMARK   48  A    between atoms: _125  and  _126
REMARK   49  A    between atoms: _129  and  _131
REMARK   50  A    between atoms: _131  and  _132
REMARK   51  A    between atoms: _131  and  _134
REMARK   52  A    between atoms: _134  and  _135
REMARK   53  A    between atoms: _140  and  _142
REMARK   54  A    between atoms: _142  and  _143
REMARK   55  A    between atoms: _145  and  _147
REMARK   56  A    between atoms: _147  and  _148
REMARK   57  A    between atoms: _150  and  _152
REMARK   58  A    between atoms: _152  and  _153
REMARK   59  A    between atoms: _152  and  _155
REMARK   60  A    between atoms: _155  and  _156
REMARK   61  A    between atoms: _160  and  ZN_433
REMARK   62  A    between atoms: _161  and  _163
REMARK   63  A    between atoms: _163  and  _164
REMARK   64  A    between atoms: _163  and  _166
REMARK   65  A    between atoms: _166  and  _167
REMARK   66  A    between atoms: _170  and  _172
REMARK   67  A    between atoms: _172  and  _173
REMARK   68  A    between atoms: _172  and  _175
REMARK   69  A    between atoms: _175  and  _176
REMARK   70  A    between atoms: _186  and  _188
REMARK   71  A    between atoms: _188  and  _189
REMARK   72  A    between atoms: _188  and  _191
REMARK   73  A    between atoms: _191  and  _192
REMARK   74  A    between atoms: _195  and  _197
REMARK   75  A    between atoms: _197  and  _198
REMARK   76  A    between atoms: _201  and  _203
REMARK   77  A    between atoms: _203  and  _204
REMARK   78  A    between atoms: _203  and  _206
REMARK   79  A    between atoms: _206  and  _207
REMARK   80  A    between atoms: _207  and  _208
REMARK   81  A    between atoms: _211  and  _213
REMARK   82  A    between atoms: _213  and  _214
REMARK   83  A    between atoms: _213  and  _216
REMARK   84  A    between atoms: _216  and  _217
REMARK   85  A    between atoms: _217  and  _218
REMARK   86  A    between atoms: _218  and  _220
REMARK   87  A    between atoms: _220  and  ZN_432
REMARK   88  A    between atoms: _221  and  _223
REMARK   89  A    between atoms: _223  and  _224
REMARK   90  A    between atoms: _223  and  _226
REMARK   91  A    between atoms: _226  and  _227
REMARK   92  A    between atoms: _233  and  _235
REMARK   93  A    between atoms: _235  and  _236
REMARK   94  A    between atoms: _238  and  _240
REMARK   95  A    between atoms: _240  and  _241
REMARK   96  A    between atoms: _240  and  _243
REMARK   97  A    between atoms: _243  and  _244
REMARK   98  A    between atoms: _247  and  _249
REMARK   99  A    between atoms: _249  and  _250
REMARK  100  A    between atoms: _249  and  _252
REMARK  101  A    between atoms: _252  and  _253
REMARK  102  A    between atoms: _256  and  _258
REMARK  103  A    between atoms: _258  and  _259
REMARK  104  A    between atoms: _258  and  _261
REMARK  105  A    between atoms: _261  and  _262
REMARK  106  A    between atoms: _267  and  _269
REMARK  107  A    between atoms: _269  and  _270
REMARK  108  A    between atoms: _269  and  _272
REMARK  109  A    between atoms: _272  and  _273
REMARK  110  A    between atoms: _273  and  _274
REMARK  111  A    between atoms: _274  and  ZN_433
REMARK  112  A    between atoms: _276  and  _278
REMARK  113  A    between atoms: _278  and  _279
REMARK  114  A    between atoms: _278  and  _281
REMARK  115  A    between atoms: _281  and  _282
REMARK  116  A    between atoms: _284  and  _286
REMARK  117  A    between atoms: _286  and  _287
REMARK  118  A    between atoms: _286  and  _289
REMARK  119  A    between atoms: _289  and  _290
REMARK  120  A    between atoms: _292  and  _294
REMARK  121  A    between atoms: _294  and  _295
REMARK  122  A    between atoms: _297  and  _299
REMARK  123  A    between atoms: _299  and  _300
REMARK  124  A    between atoms: _299  and  _302
REMARK  125  A    between atoms: _302  and  _303
REMARK  126  A    between atoms: _305  and  _307
REMARK  127  A    between atoms: _307  and  _308
REMARK  128  A    between atoms: _307  and  _310
REMARK  129  A    between atoms: _310  and  _311
REMARK  130  A    between atoms: _314  and  _316
REMARK  131  A    between atoms: _316  and  _317
REMARK  132  A    between atoms: _316  and  _319
REMARK  133  A    between atoms: _319  and  _320
REMARK  134  A    between atoms: _320  and  _321
REMARK  135  A    between atoms: _324  and  _326
REMARK  136  A    between atoms: _326  and  _327
REMARK  137  A    between atoms: _326  and  _329
REMARK  138  A    between atoms: _329  and  _330
REMARK  139  A    between atoms: _330  and  _331
REMARK  140  A    between atoms: _331  and  _332
REMARK  141  A    between atoms: _341  and  _343
REMARK  142  A    between atoms: _343  and  _344
REMARK  143  A    between atoms: _343  and  _346
REMARK  144  A    between atoms: _346  and  _347
REMARK  145  A    between atoms: _347  and  _348
REMARK  146  A    between atoms: _348  and  _349
REMARK  147  A    between atoms: _358  and  _360
REMARK  148  A    between atoms: _360  and  _361
REMARK  149  A    between atoms: _360  and  _363
REMARK  150  A    between atoms: _363  and  _364
REMARK  151  A    between atoms: _366  and  _368
REMARK  152  A    between atoms: _368  and  _369
REMARK  153  A    between atoms: _368  and  _371
REMARK  154  A    between atoms: _371  and  _372
REMARK  155  A    between atoms: _377  and  _378
REMARK  156  A    between atoms: _380  and  _382
REMARK  157  A    between atoms: _382  and  _383
REMARK  158  A    between atoms: _382  and  _385
REMARK  159  A    between atoms: _385  and  _386
REMARK  160  A    between atoms: _390  and  ZN_432
REMARK  161  A    between atoms: _391  and  _393
REMARK  162  A    between atoms: _393  and  _394
REMARK  163  A    between atoms: _393  and  _396
REMARK  164  A    between atoms: _396  and  _397
REMARK  165  A    between atoms: _402  and  _403
REMARK  166  A    between atoms: _405  and  _407
REMARK  167  A    between atoms: _407  and  _408
REMARK  168  A    between atoms: _407  and  _410
REMARK  169  A    between atoms: _410  and  _411
REMARK  170  A    between atoms: _411  and  _412
REMARK  171  A    between atoms: _412  and  _413
REMARK  172  A    between atoms: _413  and  _414
REMARK  173  A    between atoms: _418  and  _420
REMARK  174  A    between atoms: _420  and  _421
REMARK  175  A    between atoms: _420  and  _423
REMARK  176  A    between atoms: _423  and  _424
REMARK  177  A    between atoms: _429  and  _430
REMARK                            x       y       z     vdW  Elec       q    Type
REMARK                         _______ _______ _______ _____ _____    ______ ____
ROOT
ATOM      1  CA  GLY A   1       6.303  42.098  14.727  0.00  0.00    +0.156 C 
ENDROOT
BRANCH   1   2
ATOM      2  N   GLY A   1       6.700  41.543  13.418  0.00  0.00    -0.238 NA
ATOM      3  H   GLY A   1       7.697  41.315  13.229  0.00  0.00    +0.142 HD
ENDBRANCH   1   2
BRANCH   1   4
ATOM      4  C   GLY A   1       5.813  41.031  15.676  0.00  0.00    +0.226 C 
ATOM      5  O   GLY A   1       6.333  39.890  15.637  0.00  0.00    -0.287 OA
ENDBRANCH   1   4
TORSDOF 2
REMARK  Name = ../refined-set-2016/3ff3/3ff3_pocket.pdb
REMARK  177 active torsions:
REMARK  status: ('A' for Active; 'I' for Inactive)
REMARK    1  A    between atoms: _1  and  _3
REMARK    2  A    between atoms: _3  and  _4
REMARK    3  A    between atoms: _3  and  _6
REMARK    4  A    between atoms: _6  and  _7
REMARK    5  A    between atoms: _13  and  _15
REMARK    6  A    between atoms: _15  and  _16
REMARK    7  A    between atoms: _15  and  _18
REMARK    8  A    between atoms: _18  and  _19
REMARK    9  A    between atoms: _25  and  _27
REMARK   10  A    between atoms: _27  and  _28
REMARK   11  A    between atoms: _27  and  _30
REMARK   12  A    between atoms: _30  and  _31
REMARK   13  A    between atoms: _31  and  _32
REMARK   14  A    between atoms: _32  and  _33
REMARK   15  A    between atoms: _42  and  _44
REMARK   16  A    between atoms: _44  and  _45
REMARK   17  A    between atoms: _47  and  _49
REMARK   18  A    between atoms: _49  and  _50
REMARK   19  A    between atoms: _49  and  _52
REMARK   20  A    between atoms: _52  and  _53
REMARK   21  A    between atoms: _53  and  _54
REMARK   22  A    between atoms: _59  and  _61
REMARK   23  A    between atoms: _61  and  _62
REMARK   24  A    between atoms: _61  and  _64
REMARK   25  A    between atoms: _64  and  _65
REMARK   26  A    between atoms: _65  and  _66
REMARK   27  A    between atoms: _66  and  _67
REMARK   28  A    between atoms: _76  and  _78
REMARK   29  A    between atoms: _78  and  _79
REMARK   30  A    between atoms: _81  and  _83
REMARK   31  A    between atoms: _83  and  _84
REMARK   32  A    between atoms: _83  and  _86
REMARK   33  A    between atoms: _86  and  _87
REMARK   34  A    between atoms: _92  and  _94
REMARK   35  A    between atoms: _94  and  _95
REMARK   36  A    between atoms: _94  and  _97
REMARK   37  A    between atoms: _100  and  _102
REMARK   38  A    between atoms: _102  and  _103
REMARK   39  A    between atoms: _102  and  _105
REMARK   40  A    between atoms: _105  and  _106
REMARK   41  A    between atoms: _109  and  _111
REMARK   42  A    between atoms: _111  and  _112
REMARK   43  A    between atoms: _111  and  _114
REMARK   44  A    between atoms: _114  and  _115
REMARK   45  A    between atoms: _120  and  _122
REMARK   46  A    between atoms: _122  and  _123
REMARK   47  A    between atoms: _122  and  _125
REMARK   48  A    between atoms: _125  and  _126
REMARK   49  A    between atoms: _129  and  _131
REMARK   50  A    between atoms: _131  and  _132
REMARK   51  A    between atoms: _131  and  _134
REMARK   52  A    between atoms: _134  and  _135
REMARK   53  A    between atoms: _140  and  _142
REMARK   54  A    between atoms: _142  and  _143
REMARK   55  A    between atoms: _145  and  _147
REMARK   56  A    between atoms: _147  and  _148
REMARK   57  A    between atoms: _150  and  _152
REMARK   58  A    between atoms: _152  and  _153
REMARK   59  A    between atoms: _152  and  _155
REMARK   60  A    between atoms: _155  and  _156
REMARK   61  A    between atoms: _160  and  ZN_433
REMARK   62  A    between atoms: _161  and  _163
REMARK   63  A    between atoms: _163  and  _164
REMARK   64  A    between atoms: _163  and  _166
REMARK   65  A    between atoms: _166  and  _167
REMARK   66  A    between atoms: _170  and  _172
REMARK   67  A    between atoms: _172  and  _173
REMARK   68  A    between atoms: _172  and  _175
REMARK   69  A    between atoms: _175  and  _176
REMARK   70  A    between atoms: _186  and  _188
REMARK   71  A    between atoms: _188  and  _189
REMARK   72  A    between atoms: _188  and  _191
REMARK   73  A    between atoms: _191  and  _192
REMARK   74  A    between atoms: _195  and  _197
REMARK   75  A    between atoms: _197  and  _198
REMARK   76  A    between atoms: _201  and  _203
REMARK   77  A    between atoms: _203  and  _204
REMARK   78  A    between atoms: _203  and  _206
REMARK   79  A    between atoms: _206  and  _207
REMARK   80  A    between atoms: _207  and  _208
REMARK   81  A    between atoms: _211  and  _213
REMARK   82  A    between atoms: _213  and  _214
REMARK   83  A    between atoms: _213  and  _216
REMARK   84  A    between atoms: _216  and  _217
REMARK   85  A    between atoms: _217  and  _218
REMARK   86  A    between atoms: _218  and  _220
REMARK   87  A    between atoms: _220  and  ZN_432
REMARK   88  A    between atoms: _221  and  _223
REMARK   89  A    between atoms: _223  and  _224
REMARK   90  A    between atoms: _223  and  _226
REMARK   91  A    between atoms: _226  and  _227
REMARK   92  A    between atoms: _233  and  _235
REMARK   93  A    between atoms: _235  and  _236
REMARK   94  A    between atoms: _238  and  _240
REMARK   95  A    between atoms: _240  and  _241
REMARK   96  A    between atoms: _240  and  _243
REMARK   97  A    between atoms: _243  and  _244
REMARK   98  A    between atoms: _247  and  _249
REMARK   99  A    between atoms: _249  and  _250
REMARK  100  A    between atoms: _249  and  _252
REMARK  101  A    between atoms: _252  and  _253
REMARK  102  A    between atoms: _256  and  _258
REMARK  103  A    between atoms: _258  and  _259
REMARK  104  A    between atoms: _258  and  _261
REMARK  105  A    between atoms: _261  and  _262
REMARK  106  A    between atoms: _267  and  _269
REMARK  107  A    between atoms: _269  and  _270
REMARK  108  A    between atoms: _269  and  _272
REMARK  109  A    between atoms: _272  and  _273
REMARK  110  A    between atoms: _273  and  _274
REMARK  111  A    between atoms: _274  and  ZN_433
REMARK  112  A    between atoms: _276  and  _278
REMARK  113  A    between atoms: _278  and  _279
REMARK  114  A    between atoms: _278  and  _281
REMARK  115  A    between atoms: _281  and  _282
REMARK  116  A    between atoms: _284  and  _286
REMARK  117  A    between atoms: _286  and  _287
REMARK  118  A    between atoms: _286  and  _289
REMARK  119  A    between atoms: _289  and  _290
REMARK  120  A    between atoms: _292  and  _294
REMARK  121  A    between atoms: _294  and  _295
REMARK  122  A    between atoms: _297  and  _299
REMARK  123  A    between atoms: _299  and  _300
REMARK  124  A    between atoms: _299  and  _302
REMARK  125  A    between atoms: _302  and  _303
REMARK  126  A    between atoms: _305  and  _307
REMARK  127  A    between atoms: _307  and  _308
REMARK  128  A    between atoms: _307  and  _310
REMARK  129  A    between atoms: _310  and  _311
REMARK  130  A    between atoms: _314  and  _316
REMARK  131  A    between atoms: _316  and  _317
REMARK  132  A    between atoms: _316  and  _319
REMARK  133  A    between atoms: _319  and  _320
REMARK  134  A    between atoms: _320  and  _321
REMARK  135  A    between atoms: _324  and  _326
REMARK  136  A    between atoms: _326  and  _327
REMARK  137  A    between atoms: _326  and  _329
REMARK  138  A    between atoms: _329  and  _330
REMARK  139  A    between atoms: _330  and  _331
REMARK  140  A    between atoms: _331  and  _332
REMARK  141  A    between atoms: _341  and  _343
REMARK  142  A    between atoms: _343  and  _344
REMARK  143  A    between atoms: _343  and  _346
REMARK  144  A    between atoms: _346  and  _347
REMARK  145  A    between atoms: _347  and  _348
REMARK  146  A    between atoms: _348  and  _349
REMARK  147  A    between atoms: _358  and  _360
REMARK  148  A    between atoms: _360  and  _361
REMARK  149  A    between atoms: _360  and  _363
REMARK  150  A    between atoms: _363  and  _364
REMARK  151  A    between atoms: _366  and  _368
REMARK  152  A    between atoms: _368  and  _369
REMARK  153  A    between atoms: _368  and  _371
REMARK  154  A    between atoms: _371  and  _372
REMARK  155  A    between atoms: _377  and  _378
REMARK  156  A    between atoms: _380  and  _382
REMARK  157  A    between atoms: _382  and  _383
REMARK  158  A    between atoms: _382  and  _385
REMARK  159  A    between atoms: _385  and  _386
REMARK  160  A    between atoms: _390  and  ZN_432
REMARK  161  A    between atoms: _391  and  _393
REMARK  162  A    between atoms: _393  and  _394
REMARK  163  A    between atoms: _393  and  _396
REMARK  164  A    between atoms: _396  and  _397
REMARK  165  A    between atoms: _402  and  _403
REMARK  166  A    between atoms: _405  and  _407
REMARK  167  A    between atoms: _407  and  _408
REMARK  168  A    between atoms: _407  and  _410
REMARK  169  A    between atoms: _410  and  _411
REMARK  170  A    between atoms: _411  and  _412
REMARK  171  A    between atoms: _412  and  _413
REMARK  172  A    between atoms: _413  and  _414
REMARK  173  A    between atoms: _418  and  _420
REMARK  174  A    between atoms: _420  and  _421
REMARK  175  A    between atoms: _420  and  _423
REMARK  176  A    between atoms: _423  and  _424
REMARK  177  A    between atoms: _429  and  _430
REMARK                            x       y       z     vdW  Elec       q    Type
REMARK                         _______ _______ _______ _____ _____    ______ ____
ROOT
ATOM      1 ZN   UNK A   2      19.521  47.705  20.680  0.00  0.00    +0.000 Zn
ATOM      2  O   UNK A   2      20.676  47.493  22.385  0.00  0.00    +0.000 OA
ATOM      3  C   UNK A   2      21.631  46.653  22.605  0.00  0.00    +0.000 C 
ATOM      4  O   UNK A   2      21.607  45.451  22.331  0.00  0.00    +0.000 OA
ATOM      5 ZN   UNK A   2      20.087  44.217  21.841  0.00  0.00    +0.000 Zn
ATOM      6  O   UNK A   2      19.036  45.502  20.600  0.00  0.00    +0.000 OA
ATOM      7  O   UNK A   2      20.946  46.941  19.444  0.00  0.00    +0.000 OA
ENDROOT
BRANCH   5   8
ATOM      8  N   UNK A   2      21.037  42.510  22.477  0.00  0.00    +0.000 N 
ATOM      9  C   UNK A   2      22.055  42.413  23.395  0.00  0.00    +0.000 A 
ATOM     10  C   UNK A   2      22.358  41.082  23.543  0.00  0.00    +0.000 A 
ATOM     11  N   UNK A   2      21.483  40.392  22.725  0.00  0.00    +0.000 NA
ATOM     12  C   UNK A   2      20.703  41.275  22.089  0.00  0.00    +0.000 A 
BRANCH  10  13
ATOM     13  C   UNK A   2      23.374  40.352  24.382  0.00  0.00    +0.000 C 
BRANCH  13  14
ATOM     14  C   UNK A   2      23.954  41.168  25.539  0.00  0.00    +0.000 C 
BRANCH  14  15
ATOM     15  N   UNK A   2      25.075  41.990  25.108  0.00  0.00    +0.000 N 
ATOM     16  H   UNK A   2      25.005  43.025  25.180  0.00  0.00    +0.000 HD
ATOM     17  C   UNK A   1      26.202  41.437  24.617  0.00  0.00    +0.000 C 
ATOM     18  O   UNK A   1      26.426  40.226  24.578  0.00  0.00    +0.000 OA
BRANCH  17  19
ATOM     19  C   UNK A   1      27.199  42.458  24.033  0.00  0.00    +0.000 C 
BRANCH  19  20
ATOM     20  N   UNK A   1      28.551  42.304  24.619  0.00  0.00    +0.000 NA
ATOM     21  H   UNK A   1      29.374  42.259  23.985  0.00  0.00    +0.000 HD
ENDBRANCH  19  20
BRANCH  19  22
ATOM     22  C   UNK A   1      27.334  42.229  22.522  0.00  0.00    +0.000 C 
BRANCH  22  23
ATOM     23  C   UNK A   1      26.068  42.103  21.739  0.00  0.00    +0.000 A 
ATOM     24  C   UNK A   1      25.184  43.201  21.615  0.00  0.00    +0.000 A 
ATOM     25  C   UNK A   1      24.015  43.071  20.916  0.00  0.00    +0.000 A 
ATOM     26  C   UNK A   1      23.684  41.874  20.302  0.00  0.00    +0.000 A 
ATOM     27  C   UNK A   1      24.553  40.794  20.406  0.00  0.00    +0.000 A 
ATOM     28  C   UNK A   1      25.717  40.904  21.132  0.00  0.00    +0.000 A 
BRANCH  26  29
ATOM     29  O   UNK A   1      22.517  41.744  19.550  0.00  0.00    +0.000 OA
ATOM     30  H   UNK A   1      22.012  42.595  19.576  0.00  0.00    +0.000 HD
ENDBRANCH  26  29
ENDBRANCH  22  23
ENDBRANCH  19  22
ENDBRANCH  17  19
ENDBRANCH  14  15
BRANCH  14  31
ATOM     31  C   UNK A   2      24.287  40.299  26.753  0.00  0.00    +0.000 C 
ATOM     32  O   UNK A   2      23.611  39.277  27.021  0.00  0.00    +0.000 OA
ENDBRANCH  14  31
ENDBRANCH  13  14
ENDBRANCH  10  13
ENDBRANCH   5   8
BRANCH   1  36
ATOM     33  C   UNK A   2      15.669  49.163  21.867  0.00  0.00    +0.000 A 
ATOM     34  N   UNK A   2      15.993  48.253  22.849  0.00  0.00    +0.000 NA
ATOM     35  C   UNK A   2      17.186  47.722  22.593  0.00  0.00    +0.000 A 
ATOM     36  N   UNK A   2      17.644  48.249  21.470  0.00  0.00    +0.000 N 
ATOM     37  C   UNK A   2      16.724  49.166  21.001  0.00  0.00    +0.000 A 
BRANCH  33  38
ATOM     38  C   UNK A   2      14.333  49.849  21.782  0.00  0.00    +0.000 C 
BRANCH  38  39
ATOM     39  C   UNK A   2      14.315  51.361  22.154  0.00  0.00    +0.000 C 
BRANCH  39  40
ATOM     40  N   UNK A   2      14.847  52.223  21.124  0.00  0.00    +0.000 NA
ATOM     41  H   UNK A   1      15.587  51.888  20.475  0.00  0.00    +0.000 HD
ENDBRANCH  39  40
BRANCH  39  42
ATOM     42  C   UNK A   2      14.938  51.636  23.516  0.00  0.00    +0.000 C 
ATOM     43  O   UNK A   1      16.077  52.134  23.629  0.00  0.00    +0.000 OA
ENDBRANCH  39  42
ENDBRANCH  38  39
ENDBRANCH  33  38
ENDBRANCH   1  36
BRANCH   3  44
ATOM     44  C   UNK A   2      22.830  47.140  23.332  0.00  0.00    +0.000 C 
BRANCH  44  45
ATOM     45  C   UNK A   2      22.553  48.493  24.049  0.00  0.00    +0.000 C 
BRANCH  45  46
ATOM     46  N   UNK A   2      23.733  48.844  24.831  0.00  0.00    +0.000 NA
ATOM     47  H   UNK A   1      24.207  48.103  25.385  0.00  0.00    +0.000 HD
ENDBRANCH  45  46
BRANCH  45  48
ATOM     48  C   UNK A   2      21.338  48.318  24.991  0.00  0.00    +0.000 C 
ATOM     49  O   UNK A   1      21.265  47.302  25.713  0.00  0.00    +0.000 OA
ENDBRANCH  45  48
ENDBRANCH  44  45
ENDBRANCH   3  44
BRANCH   1  50
ATOM     50  O   UNK A   2      20.127  49.887  20.370  0.00  0.00    +0.000 OA
BRANCH  50  51
ATOM     51  C   UNK A   2      19.592  50.103  19.260  0.00  0.00    +0.000 C 
ATOM     52  O   UNK A   2      18.967  49.176  18.645  0.00  0.00    +0.000 OA
BRANCH  51  53
ATOM     53  C   UNK A   2      19.597  51.511  18.555  0.00  0.00    +0.000 C 
BRANCH  53  54
ATOM     54  C   UNK A   1      19.649  52.745  19.538  0.00  0.00    +0.000 C 
BRANCH  54  55
ATOM     55  C   UNK A   1      21.075  53.076  20.037  0.00  0.00    +0.000 C 
ATOM     56  N   UNK A   2      21.836  52.037  20.378  0.00  0.00    +0.000 N 
ATOM     57  H   UNK A   2      21.468  51.074  20.241  0.00  0.00    +0.000 HD
ATOM     58  O   UNK A   1      21.485  54.257  20.094  0.00  0.00    +0.000 OA
BRANCH  56  59
ATOM     59  C   UNK A   2      23.180  52.215  20.942  0.00  0.00    +0.000 C 
BRANCH  59  60
ATOM     60  C   UNK A   2      23.957  53.307  20.223  0.00  0.00    +0.000 C 
ATOM     61  O   UNK A   2      24.025  53.297  18.969  0.00  0.00    +0.000 OA
ENDBRANCH  59  60
BRANCH  59  62
ATOM     62  C   UNK A   2      23.983  50.924  20.816  0.00  0.00    +0.000 C 
BRANCH  62  63
ATOM     63  O   UNK A   2      23.260  49.802  21.289  0.00  0.00    +0.000 OA
ATOM     64  H   UNK A   2      23.814  48.988  21.190  0.00  0.00    +0.000 HD
ENDBRANCH  62  63
ENDBRANCH  59  62
ENDBRANCH  56  59
ENDBRANCH  54  55
BRANCH  54  65
ATOM     65  N   UNK A   1      19.163  53.947  18.829  0.00  0.00    +0.000 NA
ATOM     66  H   UNK A   1      19.238  53.967  17.792  0.00  0.00    +0.000 HD
ENDBRANCH  54  65
ENDBRANCH  53  54
ENDBRANCH  51  53
ENDBRANCH  50  51
ENDBRANCH   1  50
BRANCH   5  67
ATOM     67  O   UNK A   2      18.697  44.632  23.439  0.00  0.00    +0.000 OA
BRANCH  67  68
ATOM     68  C   UNK A   2      17.813  43.801  23.047  0.00  0.00    +0.000 C 
ATOM     69  O   UNK A   2      18.020  42.970  22.125  0.00  0.00    +0.000 OA
BRANCH  68  70
ATOM     70  C   UNK A   2      16.529  43.798  23.839  0.00  0.00    +0.000 C 
BRANCH  70  71
ATOM     71  C   UNK A   2      15.525  42.674  23.501  0.00  0.00    +0.000 C 
BRANCH  71  72
ATOM     72  C   UNK A   2      14.992  42.801  22.094  0.00  0.00    +0.000 C 
BRANCH  72  73
ATOM     73  N   UNK A   2      14.090  43.967  21.966  0.00  0.00    +0.000 N 
ATOM     74  H   UNK A   2      13.783  44.491  22.810  0.00  0.00    +0.000 HD
ATOM     75  C   UNK A   2      13.678  44.334  20.760  0.00  0.00    +0.000 C 
ATOM     76  O   UNK A   2      13.870  43.643  19.741  0.00  0.00    +0.000 OA
BRANCH  75  77
ATOM     77  C   UNK A   2      12.898  45.655  20.685  0.00  0.00    +0.000 C 
BRANCH  77  78
ATOM     78  N   UNK A   2      12.074  45.822  21.910  0.00  0.00    +0.000 N 
ATOM     79  H   UNK A   2      12.241  46.611  22.567  0.00  0.00    +0.000 HD
ATOM     80  C   UNK A   1      11.117  44.929  22.138  0.00  0.00    +0.000 C 
ATOM     81  O   UNK A   1      10.848  44.014  21.314  0.00  0.00    +0.000 OA
BRANCH  80  82
ATOM     82  C   UNK A   1      10.395  45.010  23.474  0.00  0.00    +0.000 C 
ATOM     83  C   UNK A   1       9.019  44.380  23.399  0.00  0.00    +0.000 C 
BRANCH  82  84
ATOM     84  N   UNK A   1      10.302  46.392  24.013  0.00  0.00    +0.000 NA
ATOM     85  H   UNK A   1      10.644  46.572  24.979  0.00  0.00    +0.000 HD
ENDBRANCH  82  84
ENDBRANCH  80  82
ENDBRANCH  77  78
BRANCH  77  86
ATOM     86  C   UNK A   2      13.882  46.848  20.586  0.00  0.00    +0.000 C 
BRANCH  86  87
ATOM     87  C   UNK A   2      14.703  46.819  19.267  0.00  0.00    +0.000 C 
BRANCH  87  88
ATOM     88  C   UNK A   2      16.013  46.015  19.317  0.00  0.00    +0.000 C 
ATOM     89  O   UNK A   2      16.393  45.464  20.362  0.00  0.00    +0.000 OA
ATOM     90  O   UNK A   2      16.689  45.997  18.249  0.00  0.00    +0.000 OA
ENDBRANCH  87  88
ENDBRANCH  86  87
ENDBRANCH  77  86
ENDBRANCH  75  77
ENDBRANCH  72  73
BRANCH  72  91
ATOM     91  C   UNK A   2      14.200  41.519  21.813  0.00  0.00    +0.000 C 
ATOM     92  N   PHE A   4      12.880  41.590  21.764  0.00  0.00    +0.000 N 
ATOM     93  H   PHE A   4      12.421  42.511  21.915  0.00  0.00    +0.000 HD
ATOM     94  O   UNK A   2      14.830  40.462  21.595  0.00  0.00    +0.000 OA
BRANCH  92  95
ATOM     95  CA  PHE A   4      12.050  40.428  21.507  0.00  0.00    +0.000 C 
BRANCH  95  96
ATOM     96  C   PHE A   4      11.552  40.371  20.076  0.00  0.00    +0.000 C 
ATOM     97  O   PHE A   4      10.636  39.574  19.768  0.00  0.00    +0.000 OA
ATOM     98  N   GLY A   5      12.123  41.202  19.196  0.00  0.00    +0.000 N 
ATOM     99  H   GLY A   5      12.829  41.894  19.519  0.00  0.00    +0.000 HD
BRANCH  98 100
ATOM    100  CA  GLY A   5      11.754  41.139  17.771  0.00  0.00    +0.000 C 
BRANCH 100 101
ATOM    101  C   GLY A   5      11.227  42.469  17.245  0.00  0.00    +0.000 C 
ATOM    102  N   LEU A   6      11.745  43.609  17.762  0.00  0.00    +0.000 N 
ATOM    103  H   LEU A   6      12.451  43.559  18.524  0.00  0.00    +0.000 HD
ATOM    104  O   GLY A   5      10.389  42.472  16.334  0.00  0.00    +0.000 OA
BRANCH 102 105
ATOM    105  CA  LEU A   6      11.309  44.929  17.244  0.00  0.00    +0.000 C 
BRANCH 105 106
ATOM    106  C   LEU A   6       9.817  45.110  17.526  0.00  0.00    +0.000 C 
ATOM    107  N   LEU A   7       9.343  44.575  18.665  0.00  0.00    +0.000 N 
ATOM    108  H   LEU A   7       9.985  44.253  19.417  0.00  0.00    +0.000 HD
ATOM    109  O   LEU A   6       9.077  45.730  16.731  0.00  0.00    +0.000 OA
BRANCH 107 110
ATOM    110  CA  LEU A   7       7.898  44.463  18.807  0.00  0.00    +0.000 C 
BRANCH 110 111
ATOM    111  C   LEU A   7       7.190  45.806  19.031  0.00  0.00    +0.000 C 
ATOM    112  O   LEU A   7       6.170  46.041  18.379  0.00  0.00    +0.000 OA
ENDBRANCH 110 111
BRANCH 110 113
ATOM    113  CB  LEU A   7       7.524  43.483  19.929  0.00  0.00    +0.000 C 
BRANCH 113 114
ATOM    114  CG  LEU A   7       8.151  42.087  19.779  0.00  0.00    +0.000 C 
ATOM    115  CD2 LEU A   7       7.576  41.172  20.886  0.00  0.00    +0.000 C 
ATOM    116  CD1 LEU A   7       7.912  41.437  18.397  0.00  0.00    +0.000 C 
ENDBRANCH 113 114
ENDBRANCH 110 113
ENDBRANCH 107 110
ENDBRANCH 105 106
BRANCH 105 117
ATOM    117  CB  LEU A   6      11.596  45.087  15.732  0.00  0.00    +0.000 C 
BRANCH 117 118
ATOM    118  CG  LEU A   6      12.956  44.500  15.270  0.00  0.00    +0.000 C 
ATOM    119  CD2 LEU A   6      14.120  45.131  16.031  0.00  0.00    +0.000 C 
ATOM    120  CD1 LEU A   6      13.102  44.756  13.769  0.00  0.00    +0.000 C 
ENDBRANCH 117 118
ENDBRANCH 105 117
ENDBRANCH 102 105
ENDBRANCH 100 101
ENDBRANCH  98 100
ENDBRANCH  95  96
BRANCH  95 121
ATOM    121  CB  PHE A   4      10.886  40.365  22.504  0.00  0.00    +0.000 C 
BRANCH 121 122
ATOM    122  CG  PHE A   4      11.322  40.023  23.905  0.00  0.00    +0.000 A 
ATOM    123  CD2 PHE A   4      11.886  41.009  24.734  0.00  0.00    +0.000 A 
ATOM    124  CE2 PHE A   4      12.325  40.705  26.052  0.00  0.00    +0.000 A 
ATOM    125  CZ  PHE A   4      12.191  39.364  26.512  0.00  0.00    +0.000 A 
ATOM    126  CE1 PHE A   4      11.655  38.381  25.677  0.00  0.00    +0.000 A 
ATOM    127  CD1 PHE A   4      11.247  38.703  24.370  0.00  0.00    +0.000 A 
ENDBRANCH 121 122
ENDBRANCH  95 121
ENDBRANCH  92  95
ENDBRANCH  72  91
ENDBRANCH  71  72
ENDBRANCH  70  71
ENDBRANCH  68  70
ENDBRANCH  67  68
ENDBRANCH   5  67
TORSDOF 57
REMARK  Name = ../refined-set-2016/3ff3/3ff3_pocket.pdb
REMARK  177 active torsions:
REMARK  status: ('A' for Active; 'I' for Inactive)
REMARK    1  A    between atoms: _1  and  _3
REMARK    2  A    between atoms: _3  and  _4
REMARK    3  A    between atoms: _3  and  _6
REMARK    4  A    between atoms: _6  and  _7
REMARK    5  A    between atoms: _13  and  _15
REMARK    6  A    between atoms: _15  and  _16
REMARK    7  A    between atoms: _15  and  _18
REMARK    8  A    between atoms: _18  and  _19
REMARK    9  A    between atoms: _25  and  _27
REMARK   10  A    between atoms: _27  and  _28
REMARK   11  A    between atoms: _27  and  _30
REMARK   12  A    between atoms: _30  and  _31
REMARK   13  A    between atoms: _31  and  _32
REMARK   14  A    between atoms: _32  and  _33
REMARK   15  A    between atoms: _42  and  _44
REMARK   16  A    between atoms: _44  and  _45
REMARK   17  A    between atoms: _47  and  _49
REMARK   18  A    between atoms: _49  and  _50
REMARK   19  A    between atoms: _49  and  _52
REMARK   20  A    between atoms: _52  and  _53
REMARK   21  A    between atoms: _53  and  _54
REMARK   22  A    between atoms: _59  and  _61
REMARK   23  A    between atoms: _61  and  _62
REMARK   24  A    between atoms: _61  and  _64
REMARK   25  A    between atoms: _64  and  _65
REMARK   26  A    between atoms: _65  and  _66
REMARK   27  A    between atoms: _66  and  _67
REMARK   28  A    between atoms: _76  and  _78
REMARK   29  A    between atoms: _78  and  _79
REMARK   30  A    between atoms: _81  and  _83
REMARK   31  A    between atoms: _83  and  _84
REMARK   32  A    between atoms: _83  and  _86
REMARK   33  A    between atoms: _86  and  _87
REMARK   34  A    between atoms: _92  and  _94
REMARK   35  A    between atoms: _94  and  _95
REMARK   36  A    between atoms: _94  and  _97
REMARK   37  A    between atoms: _100  and  _102
REMARK   38  A    between atoms: _102  and  _103
REMARK   39  A    between atoms: _102  and  _105
REMARK   40  A    between atoms: _105  and  _106
REMARK   41  A    between atoms: _109  and  _111
REMARK   42  A    between atoms: _111  and  _112
REMARK   43  A    between atoms: _111  and  _114
REMARK   44  A    between atoms: _114  and  _115
REMARK   45  A    between atoms: _120  and  _122
REMARK   46  A    between atoms: _122  and  _123
REMARK   47  A    between atoms: _122  and  _125
REMARK   48  A    between atoms: _125  and  _126
REMARK   49  A    between atoms: _129  and  _131
REMARK   50  A    between atoms: _131  and  _132
REMARK   51  A    between atoms: _131  and  _134
REMARK   52  A    between atoms: _134  and  _135
REMARK   53  A    between atoms: _140  and  _142
REMARK   54  A    between atoms: _142  and  _143
REMARK   55  A    between atoms: _145  and  _147
REMARK   56  A    between atoms: _147  and  _148
REMARK   57  A    between atoms: _150  and  _152
REMARK   58  A    between atoms: _152  and  _153
REMARK   59  A    between atoms: _152  and  _155
REMARK   60  A    between atoms: _155  and  _156
REMARK   61  A    between atoms: _160  and  ZN_433
REMARK   62  A    between atoms: _161  and  _163
REMARK   63  A    between atoms: _163  and  _164
REMARK   64  A    between atoms: _163  and  _166
REMARK   65  A    between atoms: _166  and  _167
REMARK   66  A    between atoms: _170  and  _172
REMARK   67  A    between atoms: _172  and  _173
REMARK   68  A    between atoms: _172  and  _175
REMARK   69  A    between atoms: _175  and  _176
REMARK   70  A    between atoms: _186  and  _188
REMARK   71  A    between atoms: _188  and  _189
REMARK   72  A    between atoms: _188  and  _191
REMARK   73  A    between atoms: _191  and  _192
REMARK   74  A    between atoms: _195  and  _197
REMARK   75  A    between atoms: _197  and  _198
REMARK   76  A    between atoms: _201  and  _203
REMARK   77  A    between atoms: _203  and  _204
REMARK   78  A    between atoms: _203  and  _206
REMARK   79  A    between atoms: _206  and  _207
REMARK   80  A    between atoms: _207  and  _208
REMARK   81  A    between atoms: _211  and  _213
REMARK   82  A    between atoms: _213  and  _214
REMARK   83  A    between atoms: _213  and  _216
REMARK   84  A    between atoms: _216  and  _217
REMARK   85  A    between atoms: _217  and  _218
REMARK   86  A    between atoms: _218  and  _220
REMARK   87  A    between atoms: _220  and  ZN_432
REMARK   88  A    between atoms: _221  and  _223
REMARK   89  A    between atoms: _223  and  _224
REMARK   90  A    between atoms: _223  and  _226
REMARK   91  A    between atoms: _226  and  _227
REMARK   92  A    between atoms: _233  and  _235
REMARK   93  A    between atoms: _235  and  _236
REMARK   94  A    between atoms: _238  and  _240
REMARK   95  A    between atoms: _240  and  _241
REMARK   96  A    between atoms: _240  and  _243
REMARK   97  A    between atoms: _243  and  _244
REMARK   98  A    between atoms: _247  and  _249
REMARK   99  A    between atoms: _249  and  _250
REMARK  100  A    between atoms: _249  and  _252
REMARK  101  A    between atoms: _252  and  _253
REMARK  102  A    between atoms: _256  and  _258
REMARK  103  A    between atoms: _258  and  _259
REMARK  104  A    between atoms: _258  and  _261
REMARK  105  A    between atoms: _261  and  _262
REMARK  106  A    between atoms: _267  and  _269
REMARK  107  A    between atoms: _269  and  _270
REMARK  108  A    between atoms: _269  and  _272
REMARK  109  A    between atoms: _272  and  _273
REMARK  110  A    between atoms: _273  and  _274
REMARK  111  A    between atoms: _274  and  ZN_433
REMARK  112  A    between atoms: _276  and  _278
REMARK  113  A    between atoms: _278  and  _279
REMARK  114  A    between atoms: _278  and  _281
REMARK  115  A    between atoms: _281  and  _282
REMARK  116  A    between atoms: _284  and  _286
REMARK  117  A    between atoms: _286  and  _287
REMARK  118  A    between atoms: _286  and  _289
REMARK  119  A    between atoms: _289  and  _290
REMARK  120  A    between atoms: _292  and  _294
REMARK  121  A    between atoms: _294  and  _295
REMARK  122  A    between atoms: _297  and  _299
REMARK  123  A    between atoms: _299  and  _300
REMARK  124  A    between atoms: _299  and  _302
REMARK  125  A    between atoms: _302  and  _303
REMARK  126  A    between atoms: _305  and  _307
REMARK  127  A    between atoms: _307  and  _308
REMARK  128  A    between atoms: _307  and  _310
REMARK  129  A    between atoms: _310  and  _311
REMARK  130  A    between atoms: _314  and  _316
REMARK  131  A    between atoms: _316  and  _317
REMARK  132  A    between atoms: _316  and  _319
REMARK  133  A    between atoms: _319  and  _320
REMARK  134  A    between atoms: _320  and  _321
REMARK  135  A    between atoms: _324  and  _326
REMARK  136  A    between atoms: _326  and  _327
REMARK  137  A    between atoms: _326  and  _329
REMARK  138  A    between atoms: _329  and  _330
REMARK  139  A    between atoms: _330  and  _331
REMARK  140  A    between atoms: _331  and  _332
REMARK  141  A    between atoms: _341  and  _343
REMARK  142  A    between atoms: _343  and  _344
REMARK  143  A    between atoms: _343  and  _346
REMARK  144  A    between atoms: _346  and  _347
REMARK  145  A    between atoms: _347  and  _348
REMARK  146  A    between atoms: _348  and  _349
REMARK  147  A    between atoms: _358  and  _360
REMARK  148  A    between atoms: _360  and  _361
REMARK  149  A    between atoms: _360  and  _363
REMARK  150  A    between atoms: _363  and  _364
REMARK  151  A    between atoms: _366  and  _368
REMARK  152  A    between atoms: _368  and  _369
REMARK  153  A    between atoms: _368  and  _371
REMARK  154  A    between atoms: _371  and  _372
REMARK  155  A    between atoms: _377  and  _378
REMARK  156  A    between atoms: _380  and  _382
REMARK  157  A    between atoms: _382  and  _383
REMARK  158  A    between atoms: _382  and  _385
REMARK  159  A    between atoms: _385  and  _386
REMARK  160  A    between atoms: _390  and  ZN_432
REMARK  161  A    between atoms: _391  and  _393
REMARK  162  A    between atoms: _393  and  _394
REMARK  163  A    between atoms: _393  and  _396
REMARK  164  A    between atoms: _396  and  _397
REMARK  165  A    between atoms: _402  and  _403
REMARK  166  A    between atoms: _405  and  _407
REMARK  167  A    between atoms: _407  and  _408
REMARK  168  A    between atoms: _407  and  _410
REMARK  169  A    between atoms: _410  and  _411
REMARK  170  A    between atoms: _411  and  _412
REMARK  171  A    between atoms: _412  and  _413
REMARK  172  A    between atoms: _413  and  _414
REMARK  173  A    between atoms: _418  and  _420
REMARK  174  A    between atoms: _420  and  _421
REMARK  175  A    between atoms: _420  and  _423
REMARK  176  A    between atoms: _423  and  _424
REMARK  177  A    between atoms: _429  and  _430
REMARK                            x       y       z     vdW  Elec       q    Type
REMARK                         _______ _______ _______ _____ _____    ______ ____
ROOT
ATOM      1  CA  ASP A   1      14.325  47.709  26.855  0.00  0.00    +0.144 C 
ENDROOT
BRANCH   1   2
ATOM      2  N   ASP A   1      14.209  48.986  26.157  0.00  0.00    -0.239 NA
ATOM      3  H   ASP A   1      13.646  49.057  25.285  0.00  0.00    +0.142 HD
ENDBRANCH   1   2
BRANCH   1   4
ATOM      4  C   ASP A   1      15.706  47.112  26.642  0.00  0.00    +0.225 C 
ATOM      5  O   ASP A   1      16.278  47.201  25.550  0.00  0.00    -0.287 OA
ENDBRANCH   1   4
BRANCH   1   6
ATOM      6  CB  ASP A   1      13.243  46.747  26.359  0.00  0.00    +0.139 C 
BRANCH   6   7
ATOM      7  CG  ASP A   1      13.428  46.390  24.884  0.00  0.00    +0.367 C 
ATOM      8  OD2 ASP A   1      13.531  45.160  24.611  0.00  0.00    -0.246 OA
ATOM      9  OD1 ASP A   1      13.428  47.324  24.047  0.00  0.00    -0.246 OA
ENDBRANCH   6   7
ENDBRANCH   1   6
TORSDOF 4
REMARK  Name = ../refined-set-2016/3ff3/3ff3_pocket.pdb
REMARK  177 active torsions:
REMARK  status: ('A' for Active; 'I' for Inactive)
REMARK    1  A    between atoms: _1  and  _3
REMARK    2  A    between atoms: _3  and  _4
REMARK    3  A    between atoms: _3  and  _6
REMARK    4  A    between atoms: _6  and  _7
REMARK    5  A    between atoms: _13  and  _15
REMARK    6  A    between atoms: _15  and  _16
REMARK    7  A    between atoms: _15  and  _18
REMARK    8  A    between atoms: _18  and  _19
REMARK    9  A    between atoms: _25  and  _27
REMARK   10  A    between atoms: _27  and  _28
REMARK   11  A    between atoms: _27  and  _30
REMARK   12  A    between atoms: _30  and  _31
REMARK   13  A    between atoms: _31  and  _32
REMARK   14  A    between atoms: _32  and  _33
REMARK   15  A    between atoms: _42  and  _44
REMARK   16  A    between atoms: _44  and  _45
REMARK   17  A    between atoms: _47  and  _49
REMARK   18  A    between atoms: _49  and  _50
REMARK   19  A    between atoms: _49  and  _52
REMARK   20  A    between atoms: _52  and  _53
REMARK   21  A    between atoms: _53  and  _54
REMARK   22  A    between atoms: _59  and  _61
REMARK   23  A    between atoms: _61  and  _62
REMARK   24  A    between atoms: _61  and  _64
REMARK   25  A    between atoms: _64  and  _65
REMARK   26  A    between atoms: _65  and  _66
REMARK   27  A    between atoms: _66  and  _67
REMARK   28  A    between atoms: _76  and  _78
REMARK   29  A    between atoms: _78  and  _79
REMARK   30  A    between atoms: _81  and  _83
REMARK   31  A    between atoms: _83  and  _84
REMARK   32  A    between atoms: _83  and  _86
REMARK   33  A    between atoms: _86  and  _87
REMARK   34  A    between atoms: _92  and  _94
REMARK   35  A    between atoms: _94  and  _95
REMARK   36  A    between atoms: _94  and  _97
REMARK   37  A    between atoms: _100  and  _102
REMARK   38  A    between atoms: _102  and  _103
REMARK   39  A    between atoms: _102  and  _105
REMARK   40  A    between atoms: _105  and  _106
REMARK   41  A    between atoms: _109  and  _111
REMARK   42  A    between atoms: _111  and  _112
REMARK   43  A    between atoms: _111  and  _114
REMARK   44  A    between atoms: _114  and  _115
REMARK   45  A    between atoms: _120  and  _122
REMARK   46  A    between atoms: _122  and  _123
REMARK   47  A    between atoms: _122  and  _125
REMARK   48  A    between atoms: _125  and  _126
REMARK   49  A    between atoms: _129  and  _131
REMARK   50  A    between atoms: _131  and  _132
REMARK   51  A    between atoms: _131  and  _134
REMARK   52  A    between atoms: _134  and  _135
REMARK   53  A    between atoms: _140  and  _142
REMARK   54  A    between atoms: _142  and  _143
REMARK   55  A    between atoms: _145  and  _147
REMARK   56  A    between atoms: _147  and  _148
REMARK   57  A    between atoms: _150  and  _152
REMARK   58  A    between atoms: _152  and  _153
REMARK   59  A    between atoms: _152  and  _155
REMARK   60  A    between atoms: _155  and  _156
REMARK   61  A    between atoms: _160  and  ZN_433
REMARK   62  A    between atoms: _161  and  _163
REMARK   63  A    between atoms: _163  and  _164
REMARK   64  A    between atoms: _163  and  _166
REMARK   65  A    between atoms: _166  and  _167
REMARK   66  A    between atoms: _170  and  _172
REMARK   67  A    between atoms: _172  and  _173
REMARK   68  A    between atoms: _172  and  _175
REMARK   69  A    between atoms: _175  and  _176
REMARK   70  A    between atoms: _186  and  _188
REMARK   71  A    between atoms: _188  and  _189
REMARK   72  A    between atoms: _188  and  _191
REMARK   73  A    between atoms: _191  and  _192
REMARK   74  A    between atoms: _195  and  _197
REMARK   75  A    between atoms: _197  and  _198
REMARK   76  A    between atoms: _201  and  _203
REMARK   77  A    between atoms: _203  and  _204
REMARK   78  A    between atoms: _203  and  _206
REMARK   79  A    between atoms: _206  and  _207
REMARK   80  A    between atoms: _207  and  _208
REMARK   81  A    between atoms: _211  and  _213
REMARK   82  A    between atoms: _213  and  _214
REMARK   83  A    between atoms: _213  and  _216
REMARK   84  A    between atoms: _216  and  _217
REMARK   85  A    between atoms: _217  and  _218
REMARK   86  A    between atoms: _218  and  _220
REMARK   87  A    between atoms: _220  and  ZN_432
REMARK   88  A    between atoms: _221  and  _223
REMARK   89  A    between atoms: _223  and  _224
REMARK   90  A    between atoms: _223  and  _226
REMARK   91  A    between atoms: _226  and  _227
REMARK   92  A    between atoms: _233  and  _235
REMARK   93  A    between atoms: _235  and  _236
REMARK   94  A    between atoms: _238  and  _240
REMARK   95  A    between atoms: _240  and  _241
REMARK   96  A    between atoms: _240  and  _243
REMARK   97  A    between atoms: _243  and  _244
REMARK   98  A    between atoms: _247  and  _249
REMARK   99  A    between atoms: _249  and  _250
REMARK  100  A    between atoms: _249  and  _252
REMARK  101  A    between atoms: _252  and  _253
REMARK  102  A    between atoms: _256  and  _258
REMARK  103  A    between atoms: _258  and  _259
REMARK  104  A    between atoms: _258  and  _261
REMARK  105  A    between atoms: _261  and  _262
REMARK  106  A    between atoms: _267  and  _269
REMARK  107  A    between atoms: _269  and  _270
REMARK  108  A    between atoms: _269  and  _272
REMARK  109  A    between atoms: _272  and  _273
REMARK  110  A    between atoms: _273  and  _274
REMARK  111  A    between atoms: _274  and  ZN_433
REMARK  112  A    between atoms: _276  and  _278
REMARK  113  A    between atoms: _278  and  _279
REMARK  114  A    between atoms: _278  and  _281
REMARK  115  A    between atoms: _281  and  _282
REMARK  116  A    between atoms: _284  and  _286
REMARK  117  A    between atoms: _286  and  _287
REMARK  118  A    between atoms: _286  and  _289
REMARK  119  A    between atoms: _289  and  _290
REMARK  120  A    between atoms: _292  and  _294
REMARK  121  A    between atoms: _294  and  _295
REMARK  122  A    between atoms: _297  and  _299
REMARK  123  A    between atoms: _299  and  _300
REMARK  124  A    between atoms: _299  and  _302
REMARK  125  A    between atoms: _302  and  _303
REMARK  126  A    between atoms: _305  and  _307
REMARK  127  A    between atoms: _307  and  _308
REMARK  128  A    between atoms: _307  and  _310
REMARK  129  A    between atoms: _310  and  _311
REMARK  130  A    between atoms: _314  and  _316
REMARK  131  A    between atoms: _316  and  _317
REMARK  132  A    between atoms: _316  and  _319
REMARK  133  A    between atoms: _319  and  _320
REMARK  134  A    between atoms: _320  and  _321
REMARK  135  A    between atoms: _324  and  _326
REMARK  136  A    between atoms: _326  and  _327
REMARK  137  A    between atoms: _326  and  _329
REMARK  138  A    between atoms: _329  and  _330
REMARK  139  A    between atoms: _330  and  _331
REMARK  140  A    between atoms: _331  and  _332
REMARK  141  A    between atoms: _341  and  _343
REMARK  142  A    between atoms: _343  and  _344
REMARK  143  A    between atoms: _343  and  _346
REMARK  144  A    between atoms: _346  and  _347
REMARK  145  A    between atoms: _347  and  _348
REMARK  146  A    between atoms: _348  and  _349
REMARK  147  A    between atoms: _358  and  _360
REMARK  148  A    between atoms: _360  and  _361
REMARK  149  A    between atoms: _360  and  _363
REMARK  150  A    between atoms: _363  and  _364
REMARK  151  A    between atoms: _366  and  _368
REMARK  152  A    between atoms: _368  and  _369
REMARK  153  A    between atoms: _368  and  _371
REMARK  154  A    between atoms: _371  and  _372
REMARK  155  A    between atoms: _377  and  _378
REMARK  156  A    between atoms: _380  and  _382
REMARK  157  A    between atoms: _382  and  _383
REMARK  158  A    between atoms: _382  and  _385
REMARK  159  A    between atoms: _385  and  _386
REMARK  160  A    between atoms: _390  and  ZN_432
REMARK  161  A    between atoms: _391  and  _393
REMARK  162  A    between atoms: _393  and  _394
REMARK  163  A    between atoms: _393  and  _396
REMARK  164  A    between atoms: _396  and  _397
REMARK  165  A    between atoms: _402  and  _403
REMARK  166  A    between atoms: _405  and  _407
REMARK  167  A    between atoms: _407  and  _408
REMARK  168  A    between atoms: _407  and  _410
REMARK  169  A    between atoms: _410  and  _411
REMARK  170  A    between atoms: _411  and  _412
REMARK  171  A    between atoms: _412  and  _413
REMARK  172  A    between atoms: _413  and  _414
REMARK  173  A    between atoms: _418  and  _420
REMARK  174  A    between atoms: _420  and  _421
REMARK  175  A    between atoms: _420  and  _423
REMARK  176  A    between atoms: _423  and  _424
REMARK  177  A    between atoms: _429  and  _430
REMARK                            x       y       z     vdW  Elec       q    Type
REMARK                         _______ _______ _______ _____ _____    ______ ____
ROOT
ATOM      1  CG  TRP A   1      18.896  40.889  26.434  0.00  0.00    -0.002 A 
ATOM      2  CD2 TRP A   1      17.744  40.020  26.335  0.00  0.00    +0.013 A 
ATOM      3  CE3 TRP A   1      16.930  39.396  27.290  0.00  0.00    +0.001 A 
ATOM      4  CZ3 TRP A   1      15.833  38.690  26.873  0.00  0.00    +0.000 A 
ATOM      5  CH2 TRP A   1      15.465  38.631  25.494  0.00  0.00    +0.001 A 
ATOM      6  CZ2 TRP A   1      16.269  39.202  24.506  0.00  0.00    +0.017 A 
ATOM      7  CE2 TRP A   1      17.399  39.918  24.956  0.00  0.00    +0.056 A 
ATOM      8  NE1 TRP A   1      18.349  40.623  24.245  0.00  0.00    -0.352 N 
ATOM      9  HE1 TRP A   1      18.390  40.706  23.209  0.00  0.00    +0.166 HD
ATOM     10  CD1 TRP A   1      19.250  41.210  25.145  0.00  0.00    +0.068 A 
ENDROOT
BRANCH   1  11
ATOM     11  CB  TRP A   1      19.541  41.312  27.690  0.00  0.00    +0.053 C 
BRANCH  11  12
ATOM     12  CA  TRP A   1      18.553  42.240  28.469  0.00  0.00    +0.137 C 
BRANCH  12  13
ATOM     13  N   TRP A   1      18.527  43.616  27.899  0.00  0.00    -0.239 NA
ATOM     14  H   TRP A   1      19.349  43.986  27.380  0.00  0.00    +0.142 HD
ENDBRANCH  12  13
BRANCH  12  15
ATOM     15  C   TRP A   1      18.885  42.282  29.956  0.00  0.00    +0.224 C 
ATOM     16  O   TRP A   1      18.211  41.611  30.763  0.00  0.00    -0.287 OA
ENDBRANCH  12  15
ENDBRANCH  11  12
ENDBRANCH   1  11
TORSDOF 4
REMARK  Name = ../refined-set-2016/3ff3/3ff3_pocket.pdb
REMARK  177 active torsions:
REMARK  status: ('A' for Active; 'I' for Inactive)
REMARK    1  A    between atoms: _1  and  _3
REMARK    2  A    between atoms: _3  and  _4
REMARK    3  A    between atoms: _3  and  _6
REMARK    4  A    between atoms: _6  and  _7
REMARK    5  A    between atoms: _13  and  _15
REMARK    6  A    between atoms: _15  and  _16
REMARK    7  A    between atoms: _15  and  _18
REMARK    8  A    between atoms: _18  and  _19
REMARK    9  A    between atoms: _25  and  _27
REMARK   10  A    between atoms: _27  and  _28
REMARK   11  A    between atoms: _27  and  _30
REMARK   12  A    between atoms: _30  and  _31
REMARK   13  A    between atoms: _31  and  _32
REMARK   14  A    between atoms: _32  and  _33
REMARK   15  A    between atoms: _42  and  _44
REMARK   16  A    between atoms: _44  and  _45
REMARK   17  A    between atoms: _47  and  _49
REMARK   18  A    between atoms: _49  and  _50
REMARK   19  A    between atoms: _49  and  _52
REMARK   20  A    between atoms: _52  and  _53
REMARK   21  A    between atoms: _53  and  _54
REMARK   22  A    between atoms: _59  and  _61
REMARK   23  A    between atoms: _61  and  _62
REMARK   24  A    between atoms: _61  and  _64
REMARK   25  A    between atoms: _64  and  _65
REMARK   26  A    between atoms: _65  and  _66
REMARK   27  A    between atoms: _66  and  _67
REMARK   28  A    between atoms: _76  and  _78
REMARK   29  A    between atoms: _78  and  _79
REMARK   30  A    between atoms: _81  and  _83
REMARK   31  A    between atoms: _83  and  _84
REMARK   32  A    between atoms: _83  and  _86
REMARK   33  A    between atoms: _86  and  _87
REMARK   34  A    between atoms: _92  and  _94
REMARK   35  A    between atoms: _94  and  _95
REMARK   36  A    between atoms: _94  and  _97
REMARK   37  A    between atoms: _100  and  _102
REMARK   38  A    between atoms: _102  and  _103
REMARK   39  A    between atoms: _102  and  _105
REMARK   40  A    between atoms: _105  and  _106
REMARK   41  A    between atoms: _109  and  _111
REMARK   42  A    between atoms: _111  and  _112
REMARK   43  A    between atoms: _111  and  _114
REMARK   44  A    between atoms: _114  and  _115
REMARK   45  A    between atoms: _120  and  _122
REMARK   46  A    between atoms: _122  and  _123
REMARK   47  A    between atoms: _122  and  _125
REMARK   48  A    between atoms: _125  and  _126
REMARK   49  A    between atoms: _129  and  _131
REMARK   50  A    between atoms: _131  and  _132
REMARK   51  A    between atoms: _131  and  _134
REMARK   52  A    between atoms: _134  and  _135
REMARK   53  A    between atoms: _140  and  _142
REMARK   54  A    between atoms: _142  and  _143
REMARK   55  A    between atoms: _145  and  _147
REMARK   56  A    between atoms: _147  and  _148
REMARK   57  A    between atoms: _150  and  _152
REMARK   58  A    between atoms: _152  and  _153
REMARK   59  A    between atoms: _152  and  _155
REMARK   60  A    between atoms: _155  and  _156
REMARK   61  A    between atoms: _160  and  ZN_433
REMARK   62  A    between atoms: _161  and  _163
REMARK   63  A    between atoms: _163  and  _164
REMARK   64  A    between atoms: _163  and  _166
REMARK   65  A    between atoms: _166  and  _167
REMARK   66  A    between atoms: _170  and  _172
REMARK   67  A    between atoms: _172  and  _173
REMARK   68  A    between atoms: _172  and  _175
REMARK   69  A    between atoms: _175  and  _176
REMARK   70  A    between atoms: _186  and  _188
REMARK   71  A    between atoms: _188  and  _189
REMARK   72  A    between atoms: _188  and  _191
REMARK   73  A    between atoms: _191  and  _192
REMARK   74  A    between atoms: _195  and  _197
REMARK   75  A    between atoms: _197  and  _198
REMARK   76  A    between atoms: _201  and  _203
REMARK   77  A    between atoms: _203  and  _204
REMARK   78  A    between atoms: _203  and  _206
REMARK   79  A    between atoms: _206  and  _207
REMARK   80  A    between atoms: _207  and  _208
REMARK   81  A    between atoms: _211  and  _213
REMARK   82  A    between atoms: _213  and  _214
REMARK   83  A    between atoms: _213  and  _216
REMARK   84  A    between atoms: _216  and  _217
REMARK   85  A    between atoms: _217  and  _218
REMARK   86  A    between atoms: _218  and  _220
REMARK   87  A    between atoms: _220  and  ZN_432
REMARK   88  A    between atoms: _221  and  _223
REMARK   89  A    between atoms: _223  and  _224
REMARK   90  A    between atoms: _223  and  _226
REMARK   91  A    between atoms: _226  and  _227
REMARK   92  A    between atoms: _233  and  _235
REMARK   93  A    between atoms: _235  and  _236
REMARK   94  A    between atoms: _238  and  _240
REMARK   95  A    between atoms: _240  and  _241
REMARK   96  A    between atoms: _240  and  _243
REMARK   97  A    between atoms: _243  and  _244
REMARK   98  A    between atoms: _247  and  _249
REMARK   99  A    between atoms: _249  and  _250
REMARK  100  A    between atoms: _249  and  _252
REMARK  101  A    between atoms: _252  and  _253
REMARK  102  A    between atoms: _256  and  _258
REMARK  103  A    between atoms: _258  and  _259
REMARK  104  A    between atoms: _258  and  _261
REMARK  105  A    between atoms: _261  and  _262
REMARK  106  A    between atoms: _267  and  _269
REMARK  107  A    between atoms: _269  and  _270
REMARK  108  A    between atoms: _269  and  _272
REMARK  109  A    between atoms: _272  and  _273
REMARK  110  A    between atoms: _273  and  _274
REMARK  111  A    between atoms: _274  and  ZN_433
REMARK  112  A    between atoms: _276  and  _278
REMARK  113  A    between atoms: _278  and  _279
REMARK  114  A    between atoms: _278  and  _281
REMARK  115  A    between atoms: _281  and  _282
REMARK  116  A    between atoms: _284  and  _286
REMARK  117  A    between atoms: _286  and  _287
REMARK  118  A    between atoms: _286  and  _289
REMARK  119  A    between atoms: _289  and  _290
REMARK  120  A    between atoms: _292  and  _294
REMARK  121  A    between atoms: _294  and  _295
REMARK  122  A    between atoms: _297  and  _299
REMARK  123  A    between atoms: _299  and  _300
REMARK  124  A    between atoms: _299  and  _302
REMARK  125  A    between atoms: _302  and  _303
REMARK  126  A    between atoms: _305  and  _307
REMARK  127  A    between atoms: _307  and  _308
REMARK  128  A    between atoms: _307  and  _310
REMARK  129  A    between atoms: _310  and  _311
REMARK  130  A    between atoms: _314  and  _316
REMARK  131  A    between atoms: _316  and  _317
REMARK  132  A    between atoms: _316  and  _319
REMARK  133  A    between atoms: _319  and  _320
REMARK  134  A    between atoms: _320  and  _321
REMARK  135  A    between atoms: _324  and  _326
REMARK  136  A    between atoms: _326  and  _327
REMARK  137  A    between atoms: _326  and  _329
REMARK  138  A    between atoms: _329  and  _330
REMARK  139  A    between atoms: _330  and  _331
REMARK  140  A    between atoms: _331  and  _332
REMARK  141  A    between atoms: _341  and  _343
REMARK  142  A    between atoms: _343  and  _344
REMARK  143  A    between atoms: _343  and  _346
REMARK  144  A    between atoms: _346  and  _347
REMARK  145  A    between atoms: _347  and  _348
REMARK  146  A    between atoms: _348  and  _349
REMARK  147  A    between atoms: _358  and  _360
REMARK  148  A    between atoms: _360  and  _361
REMARK  149  A    between atoms: _360  and  _363
REMARK  150  A    between atoms: _363  and  _364
REMARK  151  A    between atoms: _366  and  _368
REMARK  152  A    between atoms: _368  and  _369
REMARK  153  A    between atoms: _368  and  _371
REMARK  154  A    between atoms: _371  and  _372
REMARK  155  A    between atoms: _377  and  _378
REMARK  156  A    between atoms: _380  and  _382
REMARK  157  A    between atoms: _382  and  _383
REMARK  158  A    between atoms: _382  and  _385
REMARK  159  A    between atoms: _385  and  _386
REMARK  160  A    between atoms: _390  and  ZN_432
REMARK  161  A    between atoms: _391  and  _393
REMARK  162  A    between atoms: _393  and  _394
REMARK  163  A    between atoms: _393  and  _396
REMARK  164  A    between atoms: _396  and  _397
REMARK  165  A    between atoms: _402  and  _403
REMARK  166  A    between atoms: _405  and  _407
REMARK  167  A    between atoms: _407  and  _408
REMARK  168  A    between atoms: _407  and  _410
REMARK  169  A    between atoms: _410  and  _411
REMARK  170  A    between atoms: _411  and  _412
REMARK  171  A    between atoms: _412  and  _413
REMARK  172  A    between atoms: _413  and  _414
REMARK  173  A    between atoms: _418  and  _420
REMARK  174  A    between atoms: _420  and  _421
REMARK  175  A    between atoms: _420  and  _423
REMARK  176  A    between atoms: _423  and  _424
REMARK  177  A    between atoms: _429  and  _430
REMARK                            x       y       z     vdW  Elec       q    Type
REMARK                         _______ _______ _______ _____ _____    ______ ____
ROOT
ATOM      1  CB  ASN A   1      17.595  54.359  14.543  0.00  0.00    +0.110 C 
ENDROOT
BRANCH   1   2
ATOM      2  CG  ASN A   1      17.079  53.129  15.312  0.00  0.00    +0.221 C 
ATOM      3  OD1 ASN A   1      15.903  53.029  15.735  0.00  0.00    -0.275 OA
ATOM      4  ND2 ASN A   1      17.969  52.144  15.437  0.00  0.00    -0.329 N 
ATOM      5 HD21 ASN A   1      17.697  51.253  15.899  0.00  0.00    +0.145 HD
ATOM      6 HD22 ASN A   1      18.935  52.267  15.072  0.00  0.00    +0.145 HD
ENDBRANCH   1   2
BRANCH   1   7
ATOM      7  CA  ASN A   1      16.956  55.704  15.009  0.00  0.00    +0.142 C 
BRANCH   7   8
ATOM      8  N   ASN A   1      16.919  56.638  13.854  0.00  0.00    -0.239 NA
ATOM      9  H   ASN A   1      17.562  56.498  13.048  0.00  0.00    +0.142 HD
ENDBRANCH   7   8
BRANCH   7  10
ATOM     10  C   ASN A   1      17.792  56.290  16.136  0.00  0.00    +0.225 C 
ATOM     11  O   ASN A   1      18.711  57.099  15.929  0.00  0.00    -0.287 OA
ENDBRANCH   7  10
ENDBRANCH   1   7
TORSDOF 4
REMARK  Name = ../refined-set-2016/3ff3/3ff3_pocket.pdb
REMARK  177 active torsions:
REMARK  status: ('A' for Active; 'I' for Inactive)
REMARK    1  A    between atoms: _1  and  _3
REMARK    2  A    between atoms: _3  and  _4
REMARK    3  A    between atoms: _3  and  _6
REMARK    4  A    between atoms: _6  and  _7
REMARK    5  A    between atoms: _13  and  _15
REMARK    6  A    between atoms: _15  and  _16
REMARK    7  A    between atoms: _15  and  _18
REMARK    8  A    between atoms: _18  and  _19
REMARK    9  A    between atoms: _25  and  _27
REMARK   10  A    between atoms: _27  and  _28
REMARK   11  A    between atoms: _27  and  _30
REMARK   12  A    between atoms: _30  and  _31
REMARK   13  A    between atoms: _31  and  _32
REMARK   14  A    between atoms: _32  and  _33
REMARK   15  A    between atoms: _42  and  _44
REMARK   16  A    between atoms: _44  and  _45
REMARK   17  A    between atoms: _47  and  _49
REMARK   18  A    between atoms: _49  and  _50
REMARK   19  A    between atoms: _49  and  _52
REMARK   20  A    between atoms: _52  and  _53
REMARK   21  A    between atoms: _53  and  _54
REMARK   22  A    between atoms: _59  and  _61
REMARK   23  A    between atoms: _61  and  _62
REMARK   24  A    between atoms: _61  and  _64
REMARK   25  A    between atoms: _64  and  _65
REMARK   26  A    between atoms: _65  and  _66
REMARK   27  A    between atoms: _66  and  _67
REMARK   28  A    between atoms: _76  and  _78
REMARK   29  A    between atoms: _78  and  _79
REMARK   30  A    between atoms: _81  and  _83
REMARK   31  A    between atoms: _83  and  _84
REMARK   32  A    between atoms: _83  and  _86
REMARK   33  A    between atoms: _86  and  _87
REMARK   34  A    between atoms: _92  and  _94
REMARK   35  A    between atoms: _94  and  _95
REMARK   36  A    between atoms: _94  and  _97
REMARK   37  A    between atoms: _100  and  _102
REMARK   38  A    between atoms: _102  and  _103
REMARK   39  A    between atoms: _102  and  _105
REMARK   40  A    between atoms: _105  and  _106
REMARK   41  A    between atoms: _109  and  _111
REMARK   42  A    between atoms: _111  and  _112
REMARK   43  A    between atoms: _111  and  _114
REMARK   44  A    between atoms: _114  and  _115
REMARK   45  A    between atoms: _120  and  _122
REMARK   46  A    between atoms: _122  and  _123
REMARK   47  A    between atoms: _122  and  _125
REMARK   48  A    between atoms: _125  and  _126
REMARK   49  A    between atoms: _129  and  _131
REMARK   50  A    between atoms: _131  and  _132
REMARK   51  A    between atoms: _131  and  _134
REMARK   52  A    between atoms: _134  and  _135
REMARK   53  A    between atoms: _140  and  _142
REMARK   54  A    between atoms: _142  and  _143
REMARK   55  A    between atoms: _145  and  _147
REMARK   56  A    between atoms: _147  and  _148
REMARK   57  A    between atoms: _150  and  _152
REMARK   58  A    between atoms: _152  and  _153
REMARK   59  A    between atoms: _152  and  _155
REMARK   60  A    between atoms: _155  and  _156
REMARK   61  A    between atoms: _160  and  ZN_433
REMARK   62  A    between atoms: _161  and  _163
REMARK   63  A    between atoms: _163  and  _164
REMARK   64  A    between atoms: _163  and  _166
REMARK   65  A    between atoms: _166  and  _167
REMARK   66  A    between atoms: _170  and  _172
REMARK   67  A    between atoms: _172  and  _173
REMARK   68  A    between atoms: _172  and  _175
REMARK   69  A    between atoms: _175  and  _176
REMARK   70  A    between atoms: _186  and  _188
REMARK   71  A    between atoms: _188  and  _189
REMARK   72  A    between atoms: _188  and  _191
REMARK   73  A    between atoms: _191  and  _192
REMARK   74  A    between atoms: _195  and  _197
REMARK   75  A    between atoms: _197  and  _198
REMARK   76  A    between atoms: _201  and  _203
REMARK   77  A    between atoms: _203  and  _204
REMARK   78  A    between atoms: _203  and  _206
REMARK   79  A    between atoms: _206  and  _207
REMARK   80  A    between atoms: _207  and  _208
REMARK   81  A    between atoms: _211  and  _213
REMARK   82  A    between atoms: _213  and  _214
REMARK   83  A    between atoms: _213  and  _216
REMARK   84  A    between atoms: _216  and  _217
REMARK   85  A    between atoms: _217  and  _218
REMARK   86  A    between atoms: _218  and  _220
REMARK   87  A    between atoms: _220  and  ZN_432
REMARK   88  A    between atoms: _221  and  _223
REMARK   89  A    between atoms: _223  and  _224
REMARK   90  A    between atoms: _223  and  _226
REMARK   91  A    between atoms: _226  and  _227
REMARK   92  A    between atoms: _233  and  _235
REMARK   93  A    between atoms: _235  and  _236
REMARK   94  A    between atoms: _238  and  _240
REMARK   95  A    between atoms: _240  and  _241
REMARK   96  A    between atoms: _240  and  _243
REMARK   97  A    between atoms: _243  and  _244
REMARK   98  A    between atoms: _247  and  _249
REMARK   99  A    between atoms: _249  and  _250
REMARK  100  A    between atoms: _249  and  _252
REMARK  101  A    between atoms: _252  and  _253
REMARK  102  A    between atoms: _256  and  _258
REMARK  103  A    between atoms: _258  and  _259
REMARK  104  A    between atoms: _258  and  _261
REMARK  105  A    between atoms: _261  and  _262
REMARK  106  A    between atoms: _267  and  _269
REMARK  107  A    between atoms: _269  and  _270
REMARK  108  A    between atoms: _269  and  _272
REMARK  109  A    between atoms: _272  and  _273
REMARK  110  A    between atoms: _273  and  _274
REMARK  111  A    between atoms: _274  and  ZN_433
REMARK  112  A    between atoms: _276  and  _278
REMARK  113  A    between atoms: _278  and  _279
REMARK  114  A    between atoms: _278  and  _281
REMARK  115  A    between atoms: _281  and  _282
REMARK  116  A    between atoms: _284  and  _286
REMARK  117  A    between atoms: _286  and  _287
REMARK  118  A    between atoms: _286  and  _289
REMARK  119  A    between atoms: _289  and  _290
REMARK  120  A    between atoms: _292  and  _294
REMARK  121  A    between atoms: _294  and  _295
REMARK  122  A    between atoms: _297  and  _299
REMARK  123  A    between atoms: _299  and  _300
REMARK  124  A    between atoms: _299  and  _302
REMARK  125  A    between atoms: _302  and  _303
REMARK  126  A    between atoms: _305  and  _307
REMARK  127  A    between atoms: _307  and  _308
REMARK  128  A    between atoms: _307  and  _310
REMARK  129  A    between atoms: _310  and  _311
REMARK  130  A    between atoms: _314  and  _316
REMARK  131  A    between atoms: _316  and  _317
REMARK  132  A    between atoms: _316  and  _319
REMARK  133  A    between atoms: _319  and  _320
REMARK  134  A    between atoms: _320  and  _321
REMARK  135  A    between atoms: _324  and  _326
REMARK  136  A    between atoms: _326  and  _327
REMARK  137  A    between atoms: _326  and  _329
REMARK  138  A    between atoms: _329  and  _330
REMARK  139  A    between atoms: _330  and  _331
REMARK  140  A    between atoms: _331  and  _332
REMARK  141  A    between atoms: _341  and  _343
REMARK  142  A    between atoms: _343  and  _344
REMARK  143  A    between atoms: _343  and  _346
REMARK  144  A    between atoms: _346  and  _347
REMARK  145  A    between atoms: _347  and  _348
REMARK  146  A    between atoms: _348  and  _349
REMARK  147  A    between atoms: _358  and  _360
REMARK  148  A    between atoms: _360  and  _361
REMARK  149  A    between atoms: _360  and  _363
REMARK  150  A    between atoms: _363  and  _364
REMARK  151  A    between atoms: _366  and  _368
REMARK  152  A    between atoms: _368  and  _369
REMARK  153  A    between atoms: _368  and  _371
REMARK  154  A    between atoms: _371  and  _372
REMARK  155  A    between atoms: _377  and  _378
REMARK  156  A    between atoms: _380  and  _382
REMARK  157  A    between atoms: _382  and  _383
REMARK  158  A    between atoms: _382  and  _385
REMARK  159  A    between atoms: _385  and  _386
REMARK  160  A    between atoms: _390  and  ZN_432
REMARK  161  A    between atoms: _391  and  _393
REMARK  162  A    between atoms: _393  and  _394
REMARK  163  A    between atoms: _393  and  _396
REMARK  164  A    between atoms: _396  and  _397
REMARK  165  A    between atoms: _402  and  _403
REMARK  166  A    between atoms: _405  and  _407
REMARK  167  A    between atoms: _407  and  _408
REMARK  168  A    between atoms: _407  and  _410
REMARK  169  A    between atoms: _410  and  _411
REMARK  170  A    between atoms: _411  and  _412
REMARK  171  A    between atoms: _412  and  _413
REMARK  172  A    between atoms: _413  and  _414
REMARK  173  A    between atoms: _418  and  _420
REMARK  174  A    between atoms: _420  and  _421
REMARK  175  A    between atoms: _420  and  _423
REMARK  176  A    between atoms: _423  and  _424
REMARK  177  A    between atoms: _429  and  _430
REMARK                            x       y       z     vdW  Elec       q    Type
REMARK                         _______ _______ _______ _____ _____    ______ ____
ROOT
ATOM      1  C   GLY A   2      17.824  45.367  14.521  0.00  0.00    +0.243 C 
ATOM      2  O   GLY A   2      18.423  45.356  15.601  0.00  0.00    -0.273 OA
ATOM      3  N   SER A   3      17.134  46.431  14.063  0.00  0.00    -0.295 N 
ATOM      4  H   SER A   3      16.884  46.499  13.056  0.00  0.00    +0.150 HD
ENDROOT
BRANCH   1   5
ATOM      5  CA  GLY A   2      17.982  44.188  13.598  0.00  0.00    +0.176 C 
BRANCH   5   7
ATOM      6  C   SER A   1      18.316  44.826  11.277  0.00  0.00    +0.241 C 
ATOM      7  N   GLY A   2      17.535  44.373  12.254  0.00  0.00    -0.295 N 
ATOM      8  H   GLY A   2      16.547  44.141  12.027  0.00  0.00    +0.150 HD
ATOM      9  O   SER A   1      19.511  45.070  11.417  0.00  0.00    -0.274 OA
BRANCH   6  10
ATOM     10  CA  SER A   1      17.628  45.027   9.967  0.00  0.00    +0.174 C 
BRANCH  10  11
ATOM     11  N   SER A   1      18.618  45.077   8.916  0.00  0.00    -0.236 NA
ATOM     12  H   SER A   1      19.477  44.494   8.972  0.00  0.00    +0.142 HD
ENDBRANCH  10  11
BRANCH  10  13
ATOM     13  CB  SER A   1      16.542  43.927   9.744  0.00  0.00    +0.163 C 
BRANCH  13  14
ATOM     14  OG  SER A   1      15.490  44.050  10.739  0.00  0.00    -0.380 OA
ATOM     15  H   SER A   1      14.809  43.348  10.586  0.00  0.00    +0.211 HD
ENDBRANCH  13  14
ENDBRANCH  10  13
ENDBRANCH   6  10
ENDBRANCH   5   7
ENDBRANCH   1   5
BRANCH   3  16
ATOM     16  CA  SER A   3      16.738  47.495  14.999  0.00  0.00    +0.178 C 
BRANCH  16  17
ATOM     17  C   SER A   3      15.451  48.124  14.503  0.00  0.00    +0.243 C 
ATOM     18  N   ASP A   4      14.958  49.103  15.265  0.00  0.00    -0.297 N 
ATOM     19  H   ASP A   4      15.572  49.577  15.958  0.00  0.00    +0.150 HD
ATOM     20  O   SER A   3      14.921  47.705  13.478  0.00  0.00    -0.273 OA
BRANCH  18  21
ATOM     21  CA  ASP A   4      13.566  49.513  15.133  0.00  0.00    +0.148 C 
BRANCH  21  22
ATOM     22  C   ASP A   4      13.195  50.292  13.883  0.00  0.00    +0.227 C 
ATOM     23  O   ASP A   4      12.019  50.507  13.642  0.00  0.00    -0.286 OA
ENDBRANCH  21  22
BRANCH  21  24
ATOM     24  CB  ASP A   4      13.217  50.364  16.364  0.00  0.00    +0.142 C 
BRANCH  24  25
ATOM     25  CG  ASP A   4      13.149  49.542  17.615  0.00  0.00    +0.367 C 
ATOM     26  OD2 ASP A   4      13.899  49.890  18.544  0.00  0.00    -0.246 OA
ATOM     27  OD1 ASP A   4      12.348  48.572  17.651  0.00  0.00    -0.246 OA
ENDBRANCH  24  25
ENDBRANCH  21  24
ENDBRANCH  18  21
ENDBRANCH  16  17
BRANCH  16  28
ATOM     28  CB  SER A   3      17.825  48.575  15.265  0.00  0.00    +0.166 C 
BRANCH  28  29
ATOM     29  OG  SER A   3      17.485  49.471  16.360  0.00  0.00    -0.380 OA
ATOM     30  H   SER A   3      17.374  48.946  17.192  0.00  0.00    +0.211 HD
ENDBRANCH  28  29
ENDBRANCH  16  28
ENDBRANCH   3  16
TORSDOF 14
REMARK  Name = ../refined-set-2016/3ff3/3ff3_pocket.pdb
REMARK  177 active torsions:
REMARK  status: ('A' for Active; 'I' for Inactive)
REMARK    1  A    between atoms: _1  and  _3
REMARK    2  A    between atoms: _3  and  _4
REMARK    3  A    between atoms: _3  and  _6
REMARK    4  A    between atoms: _6  and  _7
REMARK    5  A    between atoms: _13  and  _15
REMARK    6  A    between atoms: _15  and  _16
REMARK    7  A    between atoms: _15  and  _18
REMARK    8  A    between atoms: _18  and  _19
REMARK    9  A    between atoms: _25  and  _27
REMARK   10  A    between atoms: _27  and  _28
REMARK   11  A    between atoms: _27  and  _30
REMARK   12  A    between atoms: _30  and  _31
REMARK   13  A    between atoms: _31  and  _32
REMARK   14  A    between atoms: _32  and  _33
REMARK   15  A    between atoms: _42  and  _44
REMARK   16  A    between atoms: _44  and  _45
REMARK   17  A    between atoms: _47  and  _49
REMARK   18  A    between atoms: _49  and  _50
REMARK   19  A    between atoms: _49  and  _52
REMARK   20  A    between atoms: _52  and  _53
REMARK   21  A    between atoms: _53  and  _54
REMARK   22  A    between atoms: _59  and  _61
REMARK   23  A    between atoms: _61  and  _62
REMARK   24  A    between atoms: _61  and  _64
REMARK   25  A    between atoms: _64  and  _65
REMARK   26  A    between atoms: _65  and  _66
REMARK   27  A    between atoms: _66  and  _67
REMARK   28  A    between atoms: _76  and  _78
REMARK   29  A    between atoms: _78  and  _79
REMARK   30  A    between atoms: _81  and  _83
REMARK   31  A    between atoms: _83  and  _84
REMARK   32  A    between atoms: _83  and  _86
REMARK   33  A    between atoms: _86  and  _87
REMARK   34  A    between atoms: _92  and  _94
REMARK   35  A    between atoms: _94  and  _95
REMARK   36  A    between atoms: _94  and  _97
REMARK   37  A    between atoms: _100  and  _102
REMARK   38  A    between atoms: _102  and  _103
REMARK   39  A    between atoms: _102  and  _105
REMARK   40  A    between atoms: _105  and  _106
REMARK   41  A    between atoms: _109  and  _111
REMARK   42  A    between atoms: _111  and  _112
REMARK   43  A    between atoms: _111  and  _114
REMARK   44  A    between atoms: _114  and  _115
REMARK   45  A    between atoms: _120  and  _122
REMARK   46  A    between atoms: _122  and  _123
REMARK   47  A    between atoms: _122  and  _125
REMARK   48  A    between atoms: _125  and  _126
REMARK   49  A    between atoms: _129  and  _131
REMARK   50  A    between atoms: _131  and  _132
REMARK   51  A    between atoms: _131  and  _134
REMARK   52  A    between atoms: _134  and  _135
REMARK   53  A    between atoms: _140  and  _142
REMARK   54  A    between atoms: _142  and  _143
REMARK   55  A    between atoms: _145  and  _147
REMARK   56  A    between atoms: _147  and  _148
REMARK   57  A    between atoms: _150  and  _152
REMARK   58  A    between atoms: _152  and  _153
REMARK   59  A    between atoms: _152  and  _155
REMARK   60  A    between atoms: _155  and  _156
REMARK   61  A    between atoms: _160  and  ZN_433
REMARK   62  A    between atoms: _161  and  _163
REMARK   63  A    between atoms: _163  and  _164
REMARK   64  A    between atoms: _163  and  _166
REMARK   65  A    between atoms: _166  and  _167
REMARK   66  A    between atoms: _170  and  _172
REMARK   67  A    between atoms: _172  and  _173
REMARK   68  A    between atoms: _172  and  _175
REMARK   69  A    between atoms: _175  and  _176
REMARK   70  A    between atoms: _186  and  _188
REMARK   71  A    between atoms: _188  and  _189
REMARK   72  A    between atoms: _188  and  _191
REMARK   73  A    between atoms: _191  and  _192
REMARK   74  A    between atoms: _195  and  _197
REMARK   75  A    between atoms: _197  and  _198
REMARK   76  A    between atoms: _201  and  _203
REMARK   77  A    between atoms: _203  and  _204
REMARK   78  A    between atoms: _203  and  _206
REMARK   79  A    between atoms: _206  and  _207
REMARK   80  A    between atoms: _207  and  _208
REMARK   81  A    between atoms: _211  and  _213
REMARK   82  A    between atoms: _213  and  _214
REMARK   83  A    between atoms: _213  and  _216
REMARK   84  A    between atoms: _216  and  _217
REMARK   85  A    between atoms: _217  and  _218
REMARK   86  A    between atoms: _218  and  _220
REMARK   87  A    between atoms: _220  and  ZN_432
REMARK   88  A    between atoms: _221  and  _223
REMARK   89  A    between atoms: _223  and  _224
REMARK   90  A    between atoms: _223  and  _226
REMARK   91  A    between atoms: _226  and  _227
REMARK   92  A    between atoms: _233  and  _235
REMARK   93  A    between atoms: _235  and  _236
REMARK   94  A    between atoms: _238  and  _240
REMARK   95  A    between atoms: _240  and  _241
REMARK   96  A    between atoms: _240  and  _243
REMARK   97  A    between atoms: _243  and  _244
REMARK   98  A    between atoms: _247  and  _249
REMARK   99  A    between atoms: _249  and  _250
REMARK  100  A    between atoms: _249  and  _252
REMARK  101  A    between atoms: _252  and  _253
REMARK  102  A    between atoms: _256  and  _258
REMARK  103  A    between atoms: _258  and  _259
REMARK  104  A    between atoms: _258  and  _261
REMARK  105  A    between atoms: _261  and  _262
REMARK  106  A    between atoms: _267  and  _269
REMARK  107  A    between atoms: _269  and  _270
REMARK  108  A    between atoms: _269  and  _272
REMARK  109  A    between atoms: _272  and  _273
REMARK  110  A    between atoms: _273  and  _274
REMARK  111  A    between atoms: _274  and  ZN_433
REMARK  112  A    between atoms: _276  and  _278
REMARK  113  A    between atoms: _278  and  _279
REMARK  114  A    between atoms: _278  and  _281
REMARK  115  A    between atoms: _281  and  _282
REMARK  116  A    between atoms: _284  and  _286
REMARK  117  A    between atoms: _286  and  _287
REMARK  118  A    between atoms: _286  and  _289
REMARK  119  A    between atoms: _289  and  _290
REMARK  120  A    between atoms: _292  and  _294
REMARK  121  A    between atoms: _294  and  _295
REMARK  122  A    between atoms: _297  and  _299
REMARK  123  A    between atoms: _299  and  _300
REMARK  124  A    between atoms: _299  and  _302
REMARK  125  A    between atoms: _302  and  _303
REMARK  126  A    between atoms: _305  and  _307
REMARK  127  A    between atoms: _307  and  _308
REMARK  128  A    between atoms: _307  and  _310
REMARK  129  A    between atoms: _310  and  _311
REMARK  130  A    between atoms: _314  and  _316
REMARK  131  A    between atoms: _316  and  _317
REMARK  132  A    between atoms: _316  and  _319
REMARK  133  A    between atoms: _319  and  _320
REMARK  134  A    between atoms: _320  and  _321
REMARK  135  A    between atoms: _324  and  _326
REMARK  136  A    between atoms: _326  and  _327
REMARK  137  A    between atoms: _326  and  _329
REMARK  138  A    between atoms: _329  and  _330
REMARK  139  A    between atoms: _330  and  _331
REMARK  140  A    between atoms: _331  and  _332
REMARK  141  A    between atoms: _341  and  _343
REMARK  142  A    between atoms: _343  and  _344
REMARK  143  A    between atoms: _343  and  _346
REMARK  144  A    between atoms: _346  and  _347
REMARK  145  A    between atoms: _347  and  _348
REMARK  146  A    between atoms: _348  and  _349
REMARK  147  A    between atoms: _358  and  _360
REMARK  148  A    between atoms: _360  and  _361
REMARK  149  A    between atoms: _360  and  _363
REMARK  150  A    between atoms: _363  and  _364
REMARK  151  A    between atoms: _366  and  _368
REMARK  152  A    between atoms: _368  and  _369
REMARK  153  A    between atoms: _368  and  _371
REMARK  154  A    between atoms: _371  and  _372
REMARK  155  A    between atoms: _377  and  _378
REMARK  156  A    between atoms: _380  and  _382
REMARK  157  A    between atoms: _382  and  _383
REMARK  158  A    between atoms: _382  and  _385
REMARK  159  A    between atoms: _385  and  _386
REMARK  160  A    between atoms: _390  and  ZN_432
REMARK  161  A    between atoms: _391  and  _393
REMARK  162  A    between atoms: _393  and  _394
REMARK  163  A    between atoms: _393  and  _396
REMARK  164  A    between atoms: _396  and  _397
REMARK  165  A    between atoms: _402  and  _403
REMARK  166  A    between atoms: _405  and  _407
REMARK  167  A    between atoms: _407  and  _408
REMARK  168  A    between atoms: _407  and  _410
REMARK  169  A    between atoms: _410  and  _411
REMARK  170  A    between atoms: _411  and  _412
REMARK  171  A    between atoms: _412  and  _413
REMARK  172  A    between atoms: _413  and  _414
REMARK  173  A    between atoms: _418  and  _420
REMARK  174  A    between atoms: _420  and  _421
REMARK  175  A    between atoms: _420  and  _423
REMARK  176  A    between atoms: _423  and  _424
REMARK  177  A    between atoms: _429  and  _430
REMARK                            x       y       z     vdW  Elec       q    Type
REMARK                         _______ _______ _______ _____ _____    ______ ____
ROOT
ATOM      1  CA  GLU A   1      12.950  48.001  10.066  0.00  0.00    +0.134 C 
ENDROOT
BRANCH   1   2
ATOM      2  N   GLU A   1      13.299  48.981  11.094  0.00  0.00    -0.239 NA
ATOM      3  H   GLU A   1      13.623  48.672  12.033  0.00  0.00    +0.142 HD
ENDBRANCH   1   2
BRANCH   1   4
ATOM      4  C   GLU A   1      11.547  48.155   9.486  0.00  0.00    +0.224 C 
ATOM      5  O   GLU A   1      11.359  48.189   8.251  0.00  0.00    -0.287 OA
ENDBRANCH   1   4
BRANCH   1   6
ATOM      6  CB  GLU A   1      13.112  46.567  10.621  0.00  0.00    +0.037 C 
BRANCH   6   7
ATOM      7  CG  GLU A   1      12.960  45.474   9.531  0.00  0.00    +0.116 C 
BRANCH   7   8
ATOM      8  CD  GLU A   1      12.637  44.023  10.124  0.00  0.00    +0.365 C 
ATOM      9  OE2 GLU A   1      11.649  43.811  10.850  0.00  0.00    -0.246 OA
ATOM     10  OE1 GLU A   1      13.392  43.129   9.904  0.00  0.00    -0.246 OA
ENDBRANCH   7   8
ENDBRANCH   6   7
ENDBRANCH   1   6
TORSDOF 5
REMARK  Name = ../refined-set-2016/3ff3/3ff3_pocket.pdb
REMARK  177 active torsions:
REMARK  status: ('A' for Active; 'I' for Inactive)
REMARK    1  A    between atoms: _1  and  _3
REMARK    2  A    between atoms: _3  and  _4
REMARK    3  A    between atoms: _3  and  _6
REMARK    4  A    between atoms: _6  and  _7
REMARK    5  A    between atoms: _13  and  _15
REMARK    6  A    between atoms: _15  and  _16
REMARK    7  A    between atoms: _15  and  _18
REMARK    8  A    between atoms: _18  and  _19
REMARK    9  A    between atoms: _25  and  _27
REMARK   10  A    between atoms: _27  and  _28
REMARK   11  A    between atoms: _27  and  _30
REMARK   12  A    between atoms: _30  and  _31
REMARK   13  A    between atoms: _31  and  _32
REMARK   14  A    between atoms: _32  and  _33
REMARK   15  A    between atoms: _42  and  _44
REMARK   16  A    between atoms: _44  and  _45
REMARK   17  A    between atoms: _47  and  _49
REMARK   18  A    between atoms: _49  and  _50
REMARK   19  A    between atoms: _49  and  _52
REMARK   20  A    between atoms: _52  and  _53
REMARK   21  A    between atoms: _53  and  _54
REMARK   22  A    between atoms: _59  and  _61
REMARK   23  A    between atoms: _61  and  _62
REMARK   24  A    between atoms: _61  and  _64
REMARK   25  A    between atoms: _64  and  _65
REMARK   26  A    between atoms: _65  and  _66
REMARK   27  A    between atoms: _66  and  _67
REMARK   28  A    between atoms: _76  and  _78
REMARK   29  A    between atoms: _78  and  _79
REMARK   30  A    between atoms: _81  and  _83
REMARK   31  A    between atoms: _83  and  _84
REMARK   32  A    between atoms: _83  and  _86
REMARK   33  A    between atoms: _86  and  _87
REMARK   34  A    between atoms: _92  and  _94
REMARK   35  A    between atoms: _94  and  _95
REMARK   36  A    between atoms: _94  and  _97
REMARK   37  A    between atoms: _100  and  _102
REMARK   38  A    between atoms: _102  and  _103
REMARK   39  A    between atoms: _102  and  _105
REMARK   40  A    between atoms: _105  and  _106
REMARK   41  A    between atoms: _109  and  _111
REMARK   42  A    between atoms: _111  and  _112
REMARK   43  A    between atoms: _111  and  _114
REMARK   44  A    between atoms: _114  and  _115
REMARK   45  A    between atoms: _120  and  _122
REMARK   46  A    between atoms: _122  and  _123
REMARK   47  A    between atoms: _122  and  _125
REMARK   48  A    between atoms: _125  and  _126
REMARK   49  A    between atoms: _129  and  _131
REMARK   50  A    between atoms: _131  and  _132
REMARK   51  A    between atoms: _131  and  _134
REMARK   52  A    between atoms: _134  and  _135
REMARK   53  A    between atoms: _140  and  _142
REMARK   54  A    between atoms: _142  and  _143
REMARK   55  A    between atoms: _145  and  _147
REMARK   56  A    between atoms: _147  and  _148
REMARK   57  A    between atoms: _150  and  _152
REMARK   58  A    between atoms: _152  and  _153
REMARK   59  A    between atoms: _152  and  _155
REMARK   60  A    between atoms: _155  and  _156
REMARK   61  A    between atoms: _160  and  ZN_433
REMARK   62  A    between atoms: _161  and  _163
REMARK   63  A    between atoms: _163  and  _164
REMARK   64  A    between atoms: _163  and  _166
REMARK   65  A    between atoms: _166  and  _167
REMARK   66  A    between atoms: _170  and  _172
REMARK   67  A    between atoms: _172  and  _173
REMARK   68  A    between atoms: _172  and  _175
REMARK   69  A    between atoms: _175  and  _176
REMARK   70  A    between atoms: _186  and  _188
REMARK   71  A    between atoms: _188  and  _189
REMARK   72  A    between atoms: _188  and  _191
REMARK   73  A    between atoms: _191  and  _192
REMARK   74  A    between atoms: _195  and  _197
REMARK   75  A    between atoms: _197  and  _198
REMARK   76  A    between atoms: _201  and  _203
REMARK   77  A    between atoms: _203  and  _204
REMARK   78  A    between atoms: _203  and  _206
REMARK   79  A    between atoms: _206  and  _207
REMARK   80  A    between atoms: _207  and  _208
REMARK   81  A    between atoms: _211  and  _213
REMARK   82  A    between atoms: _213  and  _214
REMARK   83  A    between atoms: _213  and  _216
REMARK   84  A    between atoms: _216  and  _217
REMARK   85  A    between atoms: _217  and  _218
REMARK   86  A    between atoms: _218  and  _220
REMARK   87  A    between atoms: _220  and  ZN_432
REMARK   88  A    between atoms: _221  and  _223
REMARK   89  A    between atoms: _223  and  _224
REMARK   90  A    between atoms: _223  and  _226
REMARK   91  A    between atoms: _226  and  _227
REMARK   92  A    between atoms: _233  and  _235
REMARK   93  A    between atoms: _235  and  _236
REMARK   94  A    between atoms: _238  and  _240
REMARK   95  A    between atoms: _240  and  _241
REMARK   96  A    between atoms: _240  and  _243
REMARK   97  A    between atoms: _243  and  _244
REMARK   98  A    between atoms: _247  and  _249
REMARK   99  A    between atoms: _249  and  _250
REMARK  100  A    between atoms: _249  and  _252
REMARK  101  A    between atoms: _252  and  _253
REMARK  102  A    between atoms: _256  and  _258
REMARK  103  A    between atoms: _258  and  _259
REMARK  104  A    between atoms: _258  and  _261
REMARK  105  A    between atoms: _261  and  _262
REMARK  106  A    between atoms: _267  and  _269
REMARK  107  A    between atoms: _269  and  _270
REMARK  108  A    between atoms: _269  and  _272
REMARK  109  A    between atoms: _272  and  _273
REMARK  110  A    between atoms: _273  and  _274
REMARK  111  A    between atoms: _274  and  ZN_433
REMARK  112  A    between atoms: _276  and  _278
REMARK  113  A    between atoms: _278  and  _279
REMARK  114  A    between atoms: _278  and  _281
REMARK  115  A    between atoms: _281  and  _282
REMARK  116  A    between atoms: _284  and  _286
REMARK  117  A    between atoms: _286  and  _287
REMARK  118  A    between atoms: _286  and  _289
REMARK  119  A    between atoms: _289  and  _290
REMARK  120  A    between atoms: _292  and  _294
REMARK  121  A    between atoms: _294  and  _295
REMARK  122  A    between atoms: _297  and  _299
REMARK  123  A    between atoms: _299  and  _300
REMARK  124  A    between atoms: _299  and  _302
REMARK  125  A    between atoms: _302  and  _303
REMARK  126  A    between atoms: _305  and  _307
REMARK  127  A    between atoms: _307  and  _308
REMARK  128  A    between atoms: _307  and  _310
REMARK  129  A    between atoms: _310  and  _311
REMARK  130  A    between atoms: _314  and  _316
REMARK  131  A    between atoms: _316  and  _317
REMARK  132  A    between atoms: _316  and  _319
REMARK  133  A    between atoms: _319  and  _320
REMARK  134  A    between atoms: _320  and  _321
REMARK  135  A    between atoms: _324  and  _326
REMARK  136  A    between atoms: _326  and  _327
REMARK  137  A    between atoms: _326  and  _329
REMARK  138  A    between atoms: _329  and  _330
REMARK  139  A    between atoms: _330  and  _331
REMARK  140  A    between atoms: _331  and  _332
REMARK  141  A    between atoms: _341  and  _343
REMARK  142  A    between atoms: _343  and  _344
REMARK  143  A    between atoms: _343  and  _346
REMARK  144  A    between atoms: _346  and  _347
REMARK  145  A    between atoms: _347  and  _348
REMARK  146  A    between atoms: _348  and  _349
REMARK  147  A    between atoms: _358  and  _360
REMARK  148  A    between atoms: _360  and  _361
REMARK  149  A    between atoms: _360  and  _363
REMARK  150  A    between atoms: _363  and  _364
REMARK  151  A    between atoms: _366  and  _368
REMARK  152  A    between atoms: _368  and  _369
REMARK  153  A    between atoms: _368  and  _371
REMARK  154  A    between atoms: _371  and  _372
REMARK  155  A    between atoms: _377  and  _378
REMARK  156  A    between atoms: _380  and  _382
REMARK  157  A    between atoms: _382  and  _383
REMARK  158  A    between atoms: _382  and  _385
REMARK  159  A    between atoms: _385  and  _386
REMARK  160  A    between atoms: _390  and  ZN_432
REMARK  161  A    between atoms: _391  and  _393
REMARK  162  A    between atoms: _393  and  _394
REMARK  163  A    between atoms: _393  and  _396
REMARK  164  A    between atoms: _396  and  _397
REMARK  165  A    between atoms: _402  and  _403
REMARK  166  A    between atoms: _405  and  _407
REMARK  167  A    between atoms: _407  and  _408
REMARK  168  A    between atoms: _407  and  _410
REMARK  169  A    between atoms: _410  and  _411
REMARK  170  A    between atoms: _411  and  _412
REMARK  171  A    between atoms: _412  and  _413
REMARK  172  A    between atoms: _413  and  _414
REMARK  173  A    between atoms: _418  and  _420
REMARK  174  A    between atoms: _420  and  _421
REMARK  175  A    between atoms: _420  and  _423
REMARK  176  A    between atoms: _423  and  _424
REMARK  177  A    between atoms: _429  and  _430
REMARK                            x       y       z     vdW  Elec       q    Type
REMARK                         _______ _______ _______ _____ _____    ______ ____
ROOT
ATOM      1  NE  ARG A   1      21.359  51.269  13.189  0.00  0.00    -0.265 N 
ATOM      2  HE  ARG A   1      21.379  52.025  13.903  0.00  0.00    +0.259 HD
ATOM      3  CZ  ARG A   1      21.416  50.004  13.596  0.00  0.00    +0.342 C 
ATOM      4  NH2 ARG A   1      21.435  49.715  14.886  0.00  0.00    -0.292 N 
ATOM      5 HH21 ARG A   1      21.405  50.479  15.591  0.00  0.00    +0.255 HD
ATOM      6 HH22 ARG A   1      21.480  48.723  15.196  0.00  0.00    +0.255 HD
ATOM      7  NH1 ARG A   1      21.424  49.024  12.696  0.00  0.00    -0.292 N 
ATOM      8 HH11 ARG A   1      21.468  48.033  13.007  0.00  0.00    +0.255 HD
ATOM      9 HH12 ARG A   1      21.386  49.249  11.681  0.00  0.00    +0.255 HD
ENDROOT
BRANCH   1  10
ATOM     10  CD  ARG A   1      21.269  51.638  11.773  0.00  0.00    +0.174 C 
BRANCH  10  11
ATOM     11  CG  ARG A   1      21.708  53.051  11.495  0.00  0.00    +0.045 C 
BRANCH  11  12
ATOM     12  CB  ARG A   1      20.908  54.012  12.240  0.00  0.00    +0.029 C 
BRANCH  12  13
ATOM     13  CA  ARG A   1      21.134  55.456  11.818  0.00  0.00    +0.133 C 
BRANCH  13  14
ATOM     14  N   ARG A   1      20.593  55.691  10.505  0.00  0.00    -0.239 NA
ATOM     15  H   ARG A   1      21.180  55.510   9.666  0.00  0.00    +0.142 HD
ENDBRANCH  13  14
BRANCH  13  16
ATOM     16  C   ARG A   1      22.607  55.832  11.849  0.00  0.00    +0.224 C 
ATOM     17  O   ARG A   1      23.288  55.745  10.813  0.00  0.00    -0.287 OA
ENDBRANCH  13  16
ENDBRANCH  12  13
ENDBRANCH  11  12
ENDBRANCH  10  11
ENDBRANCH   1  10
TORSDOF 6
REMARK  Name = ../refined-set-2016/3ff3/3ff3_pocket.pdb
REMARK  177 active torsions:
REMARK  status: ('A' for Active; 'I' for Inactive)
REMARK    1  A    between atoms: _1  and  _3
REMARK    2  A    between atoms: _3  and  _4
REMARK    3  A    between atoms: _3  and  _6
REMARK    4  A    between atoms: _6  and  _7
REMARK    5  A    between atoms: _13  and  _15
REMARK    6  A    between atoms: _15  and  _16
REMARK    7  A    between atoms: _15  and  _18
REMARK    8  A    between atoms: _18  and  _19
REMARK    9  A    between atoms: _25  and  _27
REMARK   10  A    between atoms: _27  and  _28
REMARK   11  A    between atoms: _27  and  _30
REMARK   12  A    between atoms: _30  and  _31
REMARK   13  A    between atoms: _31  and  _32
REMARK   14  A    between atoms: _32  and  _33
REMARK   15  A    between atoms: _42  and  _44
REMARK   16  A    between atoms: _44  and  _45
REMARK   17  A    between atoms: _47  and  _49
REMARK   18  A    between atoms: _49  and  _50
REMARK   19  A    between atoms: _49  and  _52
REMARK   20  A    between atoms: _52  and  _53
REMARK   21  A    between atoms: _53  and  _54
REMARK   22  A    between atoms: _59  and  _61
REMARK   23  A    between atoms: _61  and  _62
REMARK   24  A    between atoms: _61  and  _64
REMARK   25  A    between atoms: _64  and  _65
REMARK   26  A    between atoms: _65  and  _66
REMARK   27  A    between atoms: _66  and  _67
REMARK   28  A    between atoms: _76  and  _78
REMARK   29  A    between atoms: _78  and  _79
REMARK   30  A    between atoms: _81  and  _83
REMARK   31  A    between atoms: _83  and  _84
REMARK   32  A    between atoms: _83  and  _86
REMARK   33  A    between atoms: _86  and  _87
REMARK   34  A    between atoms: _92  and  _94
REMARK   35  A    between atoms: _94  and  _95
REMARK   36  A    between atoms: _94  and  _97
REMARK   37  A    between atoms: _100  and  _102
REMARK   38  A    between atoms: _102  and  _103
REMARK   39  A    between atoms: _102  and  _105
REMARK   40  A    between atoms: _105  and  _106
REMARK   41  A    between atoms: _109  and  _111
REMARK   42  A    between atoms: _111  and  _112
REMARK   43  A    between atoms: _111  and  _114
REMARK   44  A    between atoms: _114  and  _115
REMARK   45  A    between atoms: _120  and  _122
REMARK   46  A    between atoms: _122  and  _123
REMARK   47  A    between atoms: _122  and  _125
REMARK   48  A    between atoms: _125  and  _126
REMARK   49  A    between atoms: _129  and  _131
REMARK   50  A    between atoms: _131  and  _132
REMARK   51  A    between atoms: _131  and  _134
REMARK   52  A    between atoms: _134  and  _135
REMARK   53  A    between atoms: _140  and  _142
REMARK   54  A    between atoms: _142  and  _143
REMARK   55  A    between atoms: _145  and  _147
REMARK   56  A    between atoms: _147  and  _148
REMARK   57  A    between atoms: _150  and  _152
REMARK   58  A    between atoms: _152  and  _153
REMARK   59  A    between atoms: _152  and  _155
REMARK   60  A    between atoms: _155  and  _156
REMARK   61  A    between atoms: _160  and  ZN_433
REMARK   62  A    between atoms: _161  and  _163
REMARK   63  A    between atoms: _163  and  _164
REMARK   64  A    between atoms: _163  and  _166
REMARK   65  A    between atoms: _166  and  _167
REMARK   66  A    between atoms: _170  and  _172
REMARK   67  A    between atoms: _172  and  _173
REMARK   68  A    between atoms: _172  and  _175
REMARK   69  A    between atoms: _175  and  _176
REMARK   70  A    between atoms: _186  and  _188
REMARK   71  A    between atoms: _188  and  _189
REMARK   72  A    between atoms: _188  and  _191
REMARK   73  A    between atoms: _191  and  _192
REMARK   74  A    between atoms: _195  and  _197
REMARK   75  A    between atoms: _197  and  _198
REMARK   76  A    between atoms: _201  and  _203
REMARK   77  A    between atoms: _203  and  _204
REMARK   78  A    between atoms: _203  and  _206
REMARK   79  A    between atoms: _206  and  _207
REMARK   80  A    between atoms: _207  and  _208
REMARK   81  A    between atoms: _211  and  _213
REMARK   82  A    between atoms: _213  and  _214
REMARK   83  A    between atoms: _213  and  _216
REMARK   84  A    between atoms: _216  and  _217
REMARK   85  A    between atoms: _217  and  _218
REMARK   86  A    between atoms: _218  and  _220
REMARK   87  A    between atoms: _220  and  ZN_432
REMARK   88  A    between atoms: _221  and  _223
REMARK   89  A    between atoms: _223  and  _224
REMARK   90  A    between atoms: _223  and  _226
REMARK   91  A    between atoms: _226  and  _227
REMARK   92  A    between atoms: _233  and  _235
REMARK   93  A    between atoms: _235  and  _236
REMARK   94  A    between atoms: _238  and  _240
REMARK   95  A    between atoms: _240  and  _241
REMARK   96  A    between atoms: _240  and  _243
REMARK   97  A    between atoms: _243  and  _244
REMARK   98  A    between atoms: _247  and  _249
REMARK   99  A    between atoms: _249  and  _250
REMARK  100  A    between atoms: _249  and  _252
REMARK  101  A    between atoms: _252  and  _253
REMARK  102  A    between atoms: _256  and  _258
REMARK  103  A    between atoms: _258  and  _259
REMARK  104  A    between atoms: _258  and  _261
REMARK  105  A    between atoms: _261  and  _262
REMARK  106  A    between atoms: _267  and  _269
REMARK  107  A    between atoms: _269  and  _270
REMARK  108  A    between atoms: _269  and  _272
REMARK  109  A    between atoms: _272  and  _273
REMARK  110  A    between atoms: _273  and  _274
REMARK  111  A    between atoms: _274  and  ZN_433
REMARK  112  A    between atoms: _276  and  _278
REMARK  113  A    between atoms: _278  and  _279
REMARK  114  A    between atoms: _278  and  _281
REMARK  115  A    between atoms: _281  and  _282
REMARK  116  A    between atoms: _284  and  _286
REMARK  117  A    between atoms: _286  and  _287
REMARK  118  A    between atoms: _286  and  _289
REMARK  119  A    between atoms: _289  and  _290
REMARK  120  A    between atoms: _292  and  _294
REMARK  121  A    between atoms: _294  and  _295
REMARK  122  A    between atoms: _297  and  _299
REMARK  123  A    between atoms: _299  and  _300
REMARK  124  A    between atoms: _299  and  _302
REMARK  125  A    between atoms: _302  and  _303
REMARK  126  A    between atoms: _305  and  _307
REMARK  127  A    between atoms: _307  and  _308
REMARK  128  A    between atoms: _307  and  _310
REMARK  129  A    between atoms: _310  and  _311
REMARK  130  A    between atoms: _314  and  _316
REMARK  131  A    between atoms: _316  and  _317
REMARK  132  A    between atoms: _316  and  _319
REMARK  133  A    between atoms: _319  and  _320
REMARK  134  A    between atoms: _320  and  _321
REMARK  135  A    between atoms: _324  and  _326
REMARK  136  A    between atoms: _326  and  _327
REMARK  137  A    between atoms: _326  and  _329
REMARK  138  A    between atoms: _329  and  _330
REMARK  139  A    between atoms: _330  and  _331
REMARK  140  A    between atoms: _331  and  _332
REMARK  141  A    between atoms: _341  and  _343
REMARK  142  A    between atoms: _343  and  _344
REMARK  143  A    between atoms: _343  and  _346
REMARK  144  A    between atoms: _346  and  _347
REMARK  145  A    between atoms: _347  and  _348
REMARK  146  A    between atoms: _348  and  _349
REMARK  147  A    between atoms: _358  and  _360
REMARK  148  A    between atoms: _360  and  _361
REMARK  149  A    between atoms: _360  and  _363
REMARK  150  A    between atoms: _363  and  _364
REMARK  151  A    between atoms: _366  and  _368
REMARK  152  A    between atoms: _368  and  _369
REMARK  153  A    between atoms: _368  and  _371
REMARK  154  A    between atoms: _371  and  _372
REMARK  155  A    between atoms: _377  and  _378
REMARK  156  A    between atoms: _380  and  _382
REMARK  157  A    between atoms: _382  and  _383
REMARK  158  A    between atoms: _382  and  _385
REMARK  159  A    between atoms: _385  and  _386
REMARK  160  A    between atoms: _390  and  ZN_432
REMARK  161  A    between atoms: _391  and  _393
REMARK  162  A    between atoms: _393  and  _394
REMARK  163  A    between atoms: _393  and  _396
REMARK  164  A    between atoms: _396  and  _397
REMARK  165  A    between atoms: _402  and  _403
REMARK  166  A    between atoms: _405  and  _407
REMARK  167  A    between atoms: _407  and  _408
REMARK  168  A    between atoms: _407  and  _410
REMARK  169  A    between atoms: _410  and  _411
REMARK  170  A    between atoms: _411  and  _412
REMARK  171  A    between atoms: _412  and  _413
REMARK  172  A    between atoms: _413  and  _414
REMARK  173  A    between atoms: _418  and  _420
REMARK  174  A    between atoms: _420  and  _421
REMARK  175  A    between atoms: _420  and  _423
REMARK  176  A    between atoms: _423  and  _424
REMARK  177  A    between atoms: _429  and  _430
REMARK                            x       y       z     vdW  Elec       q    Type
REMARK                         _______ _______ _______ _____ _____    ______ ____
ROOT
ATOM      1  NE  ARG A   1      26.660  50.495  15.428  0.00  0.00    -0.265 N 
ATOM      2  CZ  ARG A   1      25.788  49.528  15.174  0.00  0.00    +0.342 C 
ATOM      3  NH2 ARG A   1      24.588  49.548  15.720  0.00  0.00    -0.292 N 
ATOM      4 HH21 ARG A   1      24.319  50.326  16.355  0.00  0.00    +0.255 HD
ATOM      5 HH22 ARG A   1      23.911  48.786  15.515  0.00  0.00    +0.255 HD
ATOM      6  NH1 ARG A   1      26.119  48.533  14.365  0.00  0.00    -0.292 N 
ATOM      7 HH11 ARG A   1      25.435  47.775  14.166  0.00  0.00    +0.255 HD
ATOM      8 HH12 ARG A   1      27.063  48.510  13.929  0.00  0.00    +0.255 HD
ATOM      9  HE  ARG A   1      27.596  50.434  14.979  0.00  0.00    +0.259 HD
ENDROOT
BRANCH   1  10
ATOM     10  CD  ARG A   1      26.393  51.639  16.296  0.00  0.00    +0.174 C 
BRANCH  10  11
ATOM     11  CG  ARG A   1      26.416  52.950  15.542  0.00  0.00    +0.045 C 
BRANCH  11  12
ATOM     12  CB  ARG A   1      26.193  54.121  16.523  0.00  0.00    +0.029 C 
BRANCH  12  13
ATOM     13  CA  ARG A   1      26.714  55.478  16.021  0.00  0.00    +0.133 C 
BRANCH  13  14
ATOM     14  N   ARG A   1      26.159  55.794  14.705  0.00  0.00    -0.239 NA
ATOM     15  H   ARG A   1      26.741  55.644  13.856  0.00  0.00    +0.142 HD
ENDBRANCH  13  14
BRANCH  13  16
ATOM     16  C   ARG A   1      28.218  55.395  15.918  0.00  0.00    +0.224 C 
ATOM     17  O   ARG A   1      28.744  55.267  14.813  0.00  0.00    -0.287 OA
ENDBRANCH  13  16
ENDBRANCH  12  13
ENDBRANCH  11  12
ENDBRANCH  10  11
ENDBRANCH   1  10
TORSDOF 6
REMARK  Name = ../refined-set-2016/3ff3/3ff3_pocket.pdb
REMARK  177 active torsions:
REMARK  status: ('A' for Active; 'I' for Inactive)
REMARK    1  A    between atoms: _1  and  _3
REMARK    2  A    between atoms: _3  and  _4
REMARK    3  A    between atoms: _3  and  _6
REMARK    4  A    between atoms: _6  and  _7
REMARK    5  A    between atoms: _13  and  _15
REMARK    6  A    between atoms: _15  and  _16
REMARK    7  A    between atoms: _15  and  _18
REMARK    8  A    between atoms: _18  and  _19
REMARK    9  A    between atoms: _25  and  _27
REMARK   10  A    between atoms: _27  and  _28
REMARK   11  A    between atoms: _27  and  _30
REMARK   12  A    between atoms: _30  and  _31
REMARK   13  A    between atoms: _31  and  _32
REMARK   14  A    between atoms: _32  and  _33
REMARK   15  A    between atoms: _42  and  _44
REMARK   16  A    between atoms: _44  and  _45
REMARK   17  A    between atoms: _47  and  _49
REMARK   18  A    between atoms: _49  and  _50
REMARK   19  A    between atoms: _49  and  _52
REMARK   20  A    between atoms: _52  and  _53
REMARK   21  A    between atoms: _53  and  _54
REMARK   22  A    between atoms: _59  and  _61
REMARK   23  A    between atoms: _61  and  _62
REMARK   24  A    between atoms: _61  and  _64
REMARK   25  A    between atoms: _64  and  _65
REMARK   26  A    between atoms: _65  and  _66
REMARK   27  A    between atoms: _66  and  _67
REMARK   28  A    between atoms: _76  and  _78
REMARK   29  A    between atoms: _78  and  _79
REMARK   30  A    between atoms: _81  and  _83
REMARK   31  A    between atoms: _83  and  _84
REMARK   32  A    between atoms: _83  and  _86
REMARK   33  A    between atoms: _86  and  _87
REMARK   34  A    between atoms: _92  and  _94
REMARK   35  A    between atoms: _94  and  _95
REMARK   36  A    between atoms: _94  and  _97
REMARK   37  A    between atoms: _100  and  _102
REMARK   38  A    between atoms: _102  and  _103
REMARK   39  A    between atoms: _102  and  _105
REMARK   40  A    between atoms: _105  and  _106
REMARK   41  A    between atoms: _109  and  _111
REMARK   42  A    between atoms: _111  and  _112
REMARK   43  A    between atoms: _111  and  _114
REMARK   44  A    between atoms: _114  and  _115
REMARK   45  A    between atoms: _120  and  _122
REMARK   46  A    between atoms: _122  and  _123
REMARK   47  A    between atoms: _122  and  _125
REMARK   48  A    between atoms: _125  and  _126
REMARK   49  A    between atoms: _129  and  _131
REMARK   50  A    between atoms: _131  and  _132
REMARK   51  A    between atoms: _131  and  _134
REMARK   52  A    between atoms: _134  and  _135
REMARK   53  A    between atoms: _140  and  _142
REMARK   54  A    between atoms: _142  and  _143
REMARK   55  A    between atoms: _145  and  _147
REMARK   56  A    between atoms: _147  and  _148
REMARK   57  A    between atoms: _150  and  _152
REMARK   58  A    between atoms: _152  and  _153
REMARK   59  A    between atoms: _152  and  _155
REMARK   60  A    between atoms: _155  and  _156
REMARK   61  A    between atoms: _160  and  ZN_433
REMARK   62  A    between atoms: _161  and  _163
REMARK   63  A    between atoms: _163  and  _164
REMARK   64  A    between atoms: _163  and  _166
REMARK   65  A    between atoms: _166  and  _167
REMARK   66  A    between atoms: _170  and  _172
REMARK   67  A    between atoms: _172  and  _173
REMARK   68  A    between atoms: _172  and  _175
REMARK   69  A    between atoms: _175  and  _176
REMARK   70  A    between atoms: _186  and  _188
REMARK   71  A    between atoms: _188  and  _189
REMARK   72  A    between atoms: _188  and  _191
REMARK   73  A    between atoms: _191  and  _192
REMARK   74  A    between atoms: _195  and  _197
REMARK   75  A    between atoms: _197  and  _198
REMARK   76  A    between atoms: _201  and  _203
REMARK   77  A    between atoms: _203  and  _204
REMARK   78  A    between atoms: _203  and  _206
REMARK   79  A    between atoms: _206  and  _207
REMARK   80  A    between atoms: _207  and  _208
REMARK   81  A    between atoms: _211  and  _213
REMARK   82  A    between atoms: _213  and  _214
REMARK   83  A    between atoms: _213  and  _216
REMARK   84  A    between atoms: _216  and  _217
REMARK   85  A    between atoms: _217  and  _218
REMARK   86  A    between atoms: _218  and  _220
REMARK   87  A    between atoms: _220  and  ZN_432
REMARK   88  A    between atoms: _221  and  _223
REMARK   89  A    between atoms: _223  and  _224
REMARK   90  A    between atoms: _223  and  _226
REMARK   91  A    between atoms: _226  and  _227
REMARK   92  A    between atoms: _233  and  _235
REMARK   93  A    between atoms: _235  and  _236
REMARK   94  A    between atoms: _238  and  _240
REMARK   95  A    between atoms: _240  and  _241
REMARK   96  A    between atoms: _240  and  _243
REMARK   97  A    between atoms: _243  and  _244
REMARK   98  A    between atoms: _247  and  _249
REMARK   99  A    between atoms: _249  and  _250
REMARK  100  A    between atoms: _249  and  _252
REMARK  101  A    between atoms: _252  and  _253
REMARK  102  A    between atoms: _256  and  _258
REMARK  103  A    between atoms: _258  and  _259
REMARK  104  A    between atoms: _258  and  _261
REMARK  105  A    between atoms: _261  and  _262
REMARK  106  A    between atoms: _267  and  _269
REMARK  107  A    between atoms: _269  and  _270
REMARK  108  A    between atoms: _269  and  _272
REMARK  109  A    between atoms: _272  and  _273
REMARK  110  A    between atoms: _273  and  _274
REMARK  111  A    between atoms: _274  and  ZN_433
REMARK  112  A    between atoms: _276  and  _278
REMARK  113  A    between atoms: _278  and  _279
REMARK  114  A    between atoms: _278  and  _281
REMARK  115  A    between atoms: _281  and  _282
REMARK  116  A    between atoms: _284  and  _286
REMARK  117  A    between atoms: _286  and  _287
REMARK  118  A    between atoms: _286  and  _289
REMARK  119  A    between atoms: _289  and  _290
REMARK  120  A    between atoms: _292  and  _294
REMARK  121  A    between atoms: _294  and  _295
REMARK  122  A    between atoms: _297  and  _299
REMARK  123  A    between atoms: _299  and  _300
REMARK  124  A    between atoms: _299  and  _302
REMARK  125  A    between atoms: _302  and  _303
REMARK  126  A    between atoms: _305  and  _307
REMARK  127  A    between atoms: _307  and  _308
REMARK  128  A    between atoms: _307  and  _310
REMARK  129  A    between atoms: _310  and  _311
REMARK  130  A    between atoms: _314  and  _316
REMARK  131  A    between atoms: _316  and  _317
REMARK  132  A    between atoms: _316  and  _319
REMARK  133  A    between atoms: _319  and  _320
REMARK  134  A    between atoms: _320  and  _321
REMARK  135  A    between atoms: _324  and  _326
REMARK  136  A    between atoms: _326  and  _327
REMARK  137  A    between atoms: _326  and  _329
REMARK  138  A    between atoms: _329  and  _330
REMARK  139  A    between atoms: _330  and  _331
REMARK  140  A    between atoms: _331  and  _332
REMARK  141  A    between atoms: _341  and  _343
REMARK  142  A    between atoms: _343  and  _344
REMARK  143  A    between atoms: _343  and  _346
REMARK  144  A    between atoms: _346  and  _347
REMARK  145  A    between atoms: _347  and  _348
REMARK  146  A    between atoms: _348  and  _349
REMARK  147  A    between atoms: _358  and  _360
REMARK  148  A    between atoms: _360  and  _361
REMARK  149  A    between atoms: _360  and  _363
REMARK  150  A    between atoms: _363  and  _364
REMARK  151  A    between atoms: _366  and  _368
REMARK  152  A    between atoms: _368  and  _369
REMARK  153  A    between atoms: _368  and  _371
REMARK  154  A    between atoms: _371  and  _372
REMARK  155  A    between atoms: _377  and  _378
REMARK  156  A    between atoms: _380  and  _382
REMARK  157  A    between atoms: _382  and  _383
REMARK  158  A    between atoms: _382  and  _385
REMARK  159  A    between atoms: _385  and  _386
REMARK  160  A    between atoms: _390  and  ZN_432
REMARK  161  A    between atoms: _391  and  _393
REMARK  162  A    between atoms: _393  and  _394
REMARK  163  A    between atoms: _393  and  _396
REMARK  164  A    between atoms: _396  and  _397
REMARK  165  A    between atoms: _402  and  _403
REMARK  166  A    between atoms: _405  and  _407
REMARK  167  A    between atoms: _407  and  _408
REMARK  168  A    between atoms: _407  and  _410
REMARK  169  A    between atoms: _410  and  _411
REMARK  170  A    between atoms: _411  and  _412
REMARK  171  A    between atoms: _412  and  _413
REMARK  172  A    between atoms: _413  and  _414
REMARK  173  A    between atoms: _418  and  _420
REMARK  174  A    between atoms: _420  and  _421
REMARK  175  A    between atoms: _420  and  _423
REMARK  176  A    between atoms: _423  and  _424
REMARK  177  A    between atoms: _429  and  _430
REMARK                            x       y       z     vdW  Elec       q    Type
REMARK                         _______ _______ _______ _____ _____    ______ ____
ROOT
ATOM      1  CA  SER A   1      29.677  43.235  17.919  0.00  0.00    +0.163 C 
ENDROOT
BRANCH   1   2
ATOM      2  N   SER A   1      30.386  42.327  16.984  0.00  0.00    -0.237 NA
ATOM      3  H   SER A   1      30.162  42.366  15.969  0.00  0.00    +0.142 HD
ENDBRANCH   1   2
BRANCH   1   4
ATOM      4  C   SER A   1      30.734  43.868  18.831  0.00  0.00    +0.227 C 
ATOM      5  O   SER A   1      31.684  44.514  18.364  0.00  0.00    -0.287 OA
ENDBRANCH   1   4
BRANCH   1   6
ATOM      6  CB  SER A   1      28.578  42.518  18.731  0.00  0.00    +0.162 C 
BRANCH   6   7
ATOM      7  OG  SER A   1      27.645  41.879  17.830  0.00  0.00    -0.380 OA
ATOM      8  H   SER A   1      27.230  42.563  17.247  0.00  0.00    +0.211 HD
ENDBRANCH   6   7
ENDBRANCH   1   6
TORSDOF 4
REMARK  Name = ../refined-set-2016/3ff3/3ff3_pocket.pdb
REMARK  177 active torsions:
REMARK  status: ('A' for Active; 'I' for Inactive)
REMARK    1  A    between atoms: _1  and  _3
REMARK    2  A    between atoms: _3  and  _4
REMARK    3  A    between atoms: _3  and  _6
REMARK    4  A    between atoms: _6  and  _7
REMARK    5  A    between atoms: _13  and  _15
REMARK    6  A    between atoms: _15  and  _16
REMARK    7  A    between atoms: _15  and  _18
REMARK    8  A    between atoms: _18  and  _19
REMARK    9  A    between atoms: _25  and  _27
REMARK   10  A    between atoms: _27  and  _28
REMARK   11  A    between atoms: _27  and  _30
REMARK   12  A    between atoms: _30  and  _31
REMARK   13  A    between atoms: _31  and  _32
REMARK   14  A    between atoms: _32  and  _33
REMARK   15  A    between atoms: _42  and  _44
REMARK   16  A    between atoms: _44  and  _45
REMARK   17  A    between atoms: _47  and  _49
REMARK   18  A    between atoms: _49  and  _50
REMARK   19  A    between atoms: _49  and  _52
REMARK   20  A    between atoms: _52  and  _53
REMARK   21  A    between atoms: _53  and  _54
REMARK   22  A    between atoms: _59  and  _61
REMARK   23  A    between atoms: _61  and  _62
REMARK   24  A    between atoms: _61  and  _64
REMARK   25  A    between atoms: _64  and  _65
REMARK   26  A    between atoms: _65  and  _66
REMARK   27  A    between atoms: _66  and  _67
REMARK   28  A    between atoms: _76  and  _78
REMARK   29  A    between atoms: _78  and  _79
REMARK   30  A    between atoms: _81  and  _83
REMARK   31  A    between atoms: _83  and  _84
REMARK   32  A    between atoms: _83  and  _86
REMARK   33  A    between atoms: _86  and  _87
REMARK   34  A    between atoms: _92  and  _94
REMARK   35  A    between atoms: _94  and  _95
REMARK   36  A    between atoms: _94  and  _97
REMARK   37  A    between atoms: _100  and  _102
REMARK   38  A    between atoms: _102  and  _103
REMARK   39  A    between atoms: _102  and  _105
REMARK   40  A    between atoms: _105  and  _106
REMARK   41  A    between atoms: _109  and  _111
REMARK   42  A    between atoms: _111  and  _112
REMARK   43  A    between atoms: _111  and  _114
REMARK   44  A    between atoms: _114  and  _115
REMARK   45  A    between atoms: _120  and  _122
REMARK   46  A    between atoms: _122  and  _123
REMARK   47  A    between atoms: _122  and  _125
REMARK   48  A    between atoms: _125  and  _126
REMARK   49  A    between atoms: _129  and  _131
REMARK   50  A    between atoms: _131  and  _132
REMARK   51  A    between atoms: _131  and  _134
REMARK   52  A    between atoms: _134  and  _135
REMARK   53  A    between atoms: _140  and  _142
REMARK   54  A    between atoms: _142  and  _143
REMARK   55  A    between atoms: _145  and  _147
REMARK   56  A    between atoms: _147  and  _148
REMARK   57  A    between atoms: _150  and  _152
REMARK   58  A    between atoms: _152  and  _153
REMARK   59  A    between atoms: _152  and  _155
REMARK   60  A    between atoms: _155  and  _156
REMARK   61  A    between atoms: _160  and  ZN_433
REMARK   62  A    between atoms: _161  and  _163
REMARK   63  A    between atoms: _163  and  _164
REMARK   64  A    between atoms: _163  and  _166
REMARK   65  A    between atoms: _166  and  _167
REMARK   66  A    between atoms: _170  and  _172
REMARK   67  A    between atoms: _172  and  _173
REMARK   68  A    between atoms: _172  and  _175
REMARK   69  A    between atoms: _175  and  _176
REMARK   70  A    between atoms: _186  and  _188
REMARK   71  A    between atoms: _188  and  _189
REMARK   72  A    between atoms: _188  and  _191
REMARK   73  A    between atoms: _191  and  _192
REMARK   74  A    between atoms: _195  and  _197
REMARK   75  A    between atoms: _197  and  _198
REMARK   76  A    between atoms: _201  and  _203
REMARK   77  A    between atoms: _203  and  _204
REMARK   78  A    between atoms: _203  and  _206
REMARK   79  A    between atoms: _206  and  _207
REMARK   80  A    between atoms: _207  and  _208
REMARK   81  A    between atoms: _211  and  _213
REMARK   82  A    between atoms: _213  and  _214
REMARK   83  A    between atoms: _213  and  _216
REMARK   84  A    between atoms: _216  and  _217
REMARK   85  A    between atoms: _217  and  _218
REMARK   86  A    between atoms: _218  and  _220
REMARK   87  A    between atoms: _220  and  ZN_432
REMARK   88  A    between atoms: _221  and  _223
REMARK   89  A    between atoms: _223  and  _224
REMARK   90  A    between atoms: _223  and  _226
REMARK   91  A    between atoms: _226  and  _227
REMARK   92  A    between atoms: _233  and  _235
REMARK   93  A    between atoms: _235  and  _236
REMARK   94  A    between atoms: _238  and  _240
REMARK   95  A    between atoms: _240  and  _241
REMARK   96  A    between atoms: _240  and  _243
REMARK   97  A    between atoms: _243  and  _244
REMARK   98  A    between atoms: _247  and  _249
REMARK   99  A    between atoms: _249  and  _250
REMARK  100  A    between atoms: _249  and  _252
REMARK  101  A    between atoms: _252  and  _253
REMARK  102  A    between atoms: _256  and  _258
REMARK  103  A    between atoms: _258  and  _259
REMARK  104  A    between atoms: _258  and  _261
REMARK  105  A    between atoms: _261  and  _262
REMARK  106  A    between atoms: _267  and  _269
REMARK  107  A    between atoms: _269  and  _270
REMARK  108  A    between atoms: _269  and  _272
REMARK  109  A    between atoms: _272  and  _273
REMARK  110  A    between atoms: _273  and  _274
REMARK  111  A    between atoms: _274  and  ZN_433
REMARK  112  A    between atoms: _276  and  _278
REMARK  113  A    between atoms: _278  and  _279
REMARK  114  A    between atoms: _278  and  _281
REMARK  115  A    between atoms: _281  and  _282
REMARK  116  A    between atoms: _284  and  _286
REMARK  117  A    between atoms: _286  and  _287
REMARK  118  A    between atoms: _286  and  _289
REMARK  119  A    between atoms: _289  and  _290
REMARK  120  A    between atoms: _292  and  _294
REMARK  121  A    between atoms: _294  and  _295
REMARK  122  A    between atoms: _297  and  _299
REMARK  123  A    between atoms: _299  and  _300
REMARK  124  A    between atoms: _299  and  _302
REMARK  125  A    between atoms: _302  and  _303
REMARK  126  A    between atoms: _305  and  _307
REMARK  127  A    between atoms: _307  and  _308
REMARK  128  A    between atoms: _307  and  _310
REMARK  129  A    between atoms: _310  and  _311
REMARK  130  A    between atoms: _314  and  _316
REMARK  131  A    between atoms: _316  and  _317
REMARK  132  A    between atoms: _316  and  _319
REMARK  133  A    between atoms: _319  and  _320
REMARK  134  A    between atoms: _320  and  _321
REMARK  135  A    between atoms: _324  and  _326
REMARK  136  A    between atoms: _326  and  _327
REMARK  137  A    between atoms: _326  and  _329
REMARK  138  A    between atoms: _329  and  _330
REMARK  139  A    between atoms: _330  and  _331
REMARK  140  A    between atoms: _331  and  _332
REMARK  141  A    between atoms: _341  and  _343
REMARK  142  A    between atoms: _343  and  _344
REMARK  143  A    between atoms: _343  and  _346
REMARK  144  A    between atoms: _346  and  _347
REMARK  145  A    between atoms: _347  and  _348
REMARK  146  A    between atoms: _348  and  _349
REMARK  147  A    between atoms: _358  and  _360
REMARK  148  A    between atoms: _360  and  _361
REMARK  149  A    between atoms: _360  and  _363
REMARK  150  A    between atoms: _363  and  _364
REMARK  151  A    between atoms: _366  and  _368
REMARK  152  A    between atoms: _368  and  _369
REMARK  153  A    between atoms: _368  and  _371
REMARK  154  A    between atoms: _371  and  _372
REMARK  155  A    between atoms: _377  and  _378
REMARK  156  A    between atoms: _380  and  _382
REMARK  157  A    between atoms: _382  and  _383
REMARK  158  A    between atoms: _382  and  _385
REMARK  159  A    between atoms: _385  and  _386
REMARK  160  A    between atoms: _390  and  ZN_432
REMARK  161  A    between atoms: _391  and  _393
REMARK  162  A    between atoms: _393  and  _394
REMARK  163  A    between atoms: _393  and  _396
REMARK  164  A    between atoms: _396  and  _397
REMARK  165  A    between atoms: _402  and  _403
REMARK  166  A    between atoms: _405  and  _407
REMARK  167  A    between atoms: _407  and  _408
REMARK  168  A    between atoms: _407  and  _410
REMARK  169  A    between atoms: _410  and  _411
REMARK  170  A    between atoms: _411  and  _412
REMARK  171  A    between atoms: _412  and  _413
REMARK  172  A    between atoms: _413  and  _414
REMARK  173  A    between atoms: _418  and  _420
REMARK  174  A    between atoms: _420  and  _421
REMARK  175  A    between atoms: _420  and  _423
REMARK  176  A    between atoms: _423  and  _424
REMARK  177  A    between atoms: _429  and  _430
REMARK                            x       y       z     vdW  Elec       q    Type
REMARK                         _______ _______ _______ _____ _____    ______ ____
ROOT
ATOM      1  CG  TYR A   1      11.381  41.743   4.783  0.00  0.00    -0.020 A 
ATOM      2  CD2 TYR A   1      11.240  42.626   5.849  0.00  0.00    -0.001 A 
ATOM      3  CE2 TYR A   1      11.889  42.434   7.086  0.00  0.00    +0.036 A 
ATOM      4  CZ  TYR A   1      12.697  41.314   7.235  0.00  0.00    +0.134 A 
ATOM      5  CE1 TYR A   1      12.855  40.460   6.182  0.00  0.00    +0.036 A 
ATOM      6  CD1 TYR A   1      12.190  40.656   4.983  0.00  0.00    -0.001 A 
ENDROOT
BRANCH   4   7
ATOM      7  OH  TYR A   1      13.364  41.039   8.449  0.00  0.00    -0.506 OA
ATOM      8  HH  TYR A   1      13.150  41.745   9.109  0.00  0.00    +0.292 HD
ENDBRANCH   4   7
BRANCH   1   9
ATOM      9  CB  TYR A   1      10.739  41.984   3.453  0.00  0.00    +0.051 C 
BRANCH   9  10
ATOM     10  CA  TYR A   1       9.512  42.914   3.507  0.00  0.00    +0.137 C 
BRANCH  10  11
ATOM     11  N   TYR A   1       8.387  42.266   4.169  0.00  0.00    -0.239 NA
ATOM     12  H   TYR A   1       8.136  41.292   3.903  0.00  0.00    +0.142 HD
ENDBRANCH  10  11
BRANCH  10  13
ATOM     13  C   TYR A   1       9.027  43.311   2.121  0.00  0.00    +0.224 C 
ATOM     14  O   TYR A   1       8.812  42.466   1.226  0.00  0.00    -0.287 OA
ENDBRANCH  10  13
ENDBRANCH   9  10
ENDBRANCH   1   9
TORSDOF 5
REMARK  Name = ../refined-set-2016/3ff3/3ff3_pocket.pdb
REMARK  177 active torsions:
REMARK  status: ('A' for Active; 'I' for Inactive)
REMARK    1  A    between atoms: _1  and  _3
REMARK    2  A    between atoms: _3  and  _4
REMARK    3  A    between atoms: _3  and  _6
REMARK    4  A    between atoms: _6  and  _7
REMARK    5  A    between atoms: _13  and  _15
REMARK    6  A    between atoms: _15  and  _16
REMARK    7  A    between atoms: _15  and  _18
REMARK    8  A    between atoms: _18  and  _19
REMARK    9  A    between atoms: _25  and  _27
REMARK   10  A    between atoms: _27  and  _28
REMARK   11  A    between atoms: _27  and  _30
REMARK   12  A    between atoms: _30  and  _31
REMARK   13  A    between atoms: _31  and  _32
REMARK   14  A    between atoms: _32  and  _33
REMARK   15  A    between atoms: _42  and  _44
REMARK   16  A    between atoms: _44  and  _45
REMARK   17  A    between atoms: _47  and  _49
REMARK   18  A    between atoms: _49  and  _50
REMARK   19  A    between atoms: _49  and  _52
REMARK   20  A    between atoms: _52  and  _53
REMARK   21  A    between atoms: _53  and  _54
REMARK   22  A    between atoms: _59  and  _61
REMARK   23  A    between atoms: _61  and  _62
REMARK   24  A    between atoms: _61  and  _64
REMARK   25  A    between atoms: _64  and  _65
REMARK   26  A    between atoms: _65  and  _66
REMARK   27  A    between atoms: _66  and  _67
REMARK   28  A    between atoms: _76  and  _78
REMARK   29  A    between atoms: _78  and  _79
REMARK   30  A    between atoms: _81  and  _83
REMARK   31  A    between atoms: _83  and  _84
REMARK   32  A    between atoms: _83  and  _86
REMARK   33  A    between atoms: _86  and  _87
REMARK   34  A    between atoms: _92  and  _94
REMARK   35  A    between atoms: _94  and  _95
REMARK   36  A    between atoms: _94  and  _97
REMARK   37  A    between atoms: _100  and  _102
REMARK   38  A    between atoms: _102  and  _103
REMARK   39  A    between atoms: _102  and  _105
REMARK   40  A    between atoms: _105  and  _106
REMARK   41  A    between atoms: _109  and  _111
REMARK   42  A    between atoms: _111  and  _112
REMARK   43  A    between atoms: _111  and  _114
REMARK   44  A    between atoms: _114  and  _115
REMARK   45  A    between atoms: _120  and  _122
REMARK   46  A    between atoms: _122  and  _123
REMARK   47  A    between atoms: _122  and  _125
REMARK   48  A    between atoms: _125  and  _126
REMARK   49  A    between atoms: _129  and  _131
REMARK   50  A    between atoms: _131  and  _132
REMARK   51  A    between atoms: _131  and  _134
REMARK   52  A    between atoms: _134  and  _135
REMARK   53  A    between atoms: _140  and  _142
REMARK   54  A    between atoms: _142  and  _143
REMARK   55  A    between atoms: _145  and  _147
REMARK   56  A    between atoms: _147  and  _148
REMARK   57  A    between atoms: _150  and  _152
REMARK   58  A    between atoms: _152  and  _153
REMARK   59  A    between atoms: _152  and  _155
REMARK   60  A    between atoms: _155  and  _156
REMARK   61  A    between atoms: _160  and  ZN_433
REMARK   62  A    between atoms: _161  and  _163
REMARK   63  A    between atoms: _163  and  _164
REMARK   64  A    between atoms: _163  and  _166
REMARK   65  A    between atoms: _166  and  _167
REMARK   66  A    between atoms: _170  and  _172
REMARK   67  A    between atoms: _172  and  _173
REMARK   68  A    between atoms: _172  and  _175
REMARK   69  A    between atoms: _175  and  _176
REMARK   70  A    between atoms: _186  and  _188
REMARK   71  A    between atoms: _188  and  _189
REMARK   72  A    between atoms: _188  and  _191
REMARK   73  A    between atoms: _191  and  _192
REMARK   74  A    between atoms: _195  and  _197
REMARK   75  A    between atoms: _197  and  _198
REMARK   76  A    between atoms: _201  and  _203
REMARK   77  A    between atoms: _203  and  _204
REMARK   78  A    between atoms: _203  and  _206
REMARK   79  A    between atoms: _206  and  _207
REMARK   80  A    between atoms: _207  and  _208
REMARK   81  A    between atoms: _211  and  _213
REMARK   82  A    between atoms: _213  and  _214
REMARK   83  A    between atoms: _213  and  _216
REMARK   84  A    between atoms: _216  and  _217
REMARK   85  A    between atoms: _217  and  _218
REMARK   86  A    between atoms: _218  and  _220
REMARK   87  A    between atoms: _220  and  ZN_432
REMARK   88  A    between atoms: _221  and  _223
REMARK   89  A    between atoms: _223  and  _224
REMARK   90  A    between atoms: _223  and  _226
REMARK   91  A    between atoms: _226  and  _227
REMARK   92  A    between atoms: _233  and  _235
REMARK   93  A    between atoms: _235  and  _236
REMARK   94  A    between atoms: _238  and  _240
REMARK   95  A    between atoms: _240  and  _241
REMARK   96  A    between atoms: _240  and  _243
REMARK   97  A    between atoms: _243  and  _244
REMARK   98  A    between atoms: _247  and  _249
REMARK   99  A    between atoms: _249  and  _250
REMARK  100  A    between atoms: _249  and  _252
REMARK  101  A    between atoms: _252  and  _253
REMARK  102  A    between atoms: _256  and  _258
REMARK  103  A    between atoms: _258  and  _259
REMARK  104  A    between atoms: _258  and  _261
REMARK  105  A    between atoms: _261  and  _262
REMARK  106  A    between atoms: _267  and  _269
REMARK  107  A    between atoms: _269  and  _270
REMARK  108  A    between atoms: _269  and  _272
REMARK  109  A    between atoms: _272  and  _273
REMARK  110  A    between atoms: _273  and  _274
REMARK  111  A    between atoms: _274  and  ZN_433
REMARK  112  A    between atoms: _276  and  _278
REMARK  113  A    between atoms: _278  and  _279
REMARK  114  A    between atoms: _278  and  _281
REMARK  115  A    between atoms: _281  and  _282
REMARK  116  A    between atoms: _284  and  _286
REMARK  117  A    between atoms: _286  and  _287
REMARK  118  A    between atoms: _286  and  _289
REMARK  119  A    between atoms: _289  and  _290
REMARK  120  A    between atoms: _292  and  _294
REMARK  121  A    between atoms: _294  and  _295
REMARK  122  A    between atoms: _297  and  _299
REMARK  123  A    between atoms: _299  and  _300
REMARK  124  A    between atoms: _299  and  _302
REMARK  125  A    between atoms: _302  and  _303
REMARK  126  A    between atoms: _305  and  _307
REMARK  127  A    between atoms: _307  and  _308
REMARK  128  A    between atoms: _307  and  _310
REMARK  129  A    between atoms: _310  and  _311
REMARK  130  A    between atoms: _314  and  _316
REMARK  131  A    between atoms: _316  and  _317
REMARK  132  A    between atoms: _316  and  _319
REMARK  133  A    between atoms: _319  and  _320
REMARK  134  A    between atoms: _320  and  _321
REMARK  135  A    between atoms: _324  and  _326
REMARK  136  A    between atoms: _326  and  _327
REMARK  137  A    between atoms: _326  and  _329
REMARK  138  A    between atoms: _329  and  _330
REMARK  139  A    between atoms: _330  and  _331
REMARK  140  A    between atoms: _331  and  _332
REMARK  141  A    between atoms: _341  and  _343
REMARK  142  A    between atoms: _343  and  _344
REMARK  143  A    between atoms: _343  and  _346
REMARK  144  A    between atoms: _346  and  _347
REMARK  145  A    between atoms: _347  and  _348
REMARK  146  A    between atoms: _348  and  _349
REMARK  147  A    between atoms: _358  and  _360
REMARK  148  A    between atoms: _360  and  _361
REMARK  149  A    between atoms: _360  and  _363
REMARK  150  A    between atoms: _363  and  _364
REMARK  151  A    between atoms: _366  and  _368
REMARK  152  A    between atoms: _368  and  _369
REMARK  153  A    between atoms: _368  and  _371
REMARK  154  A    between atoms: _371  and  _372
REMARK  155  A    between atoms: _377  and  _378
REMARK  156  A    between atoms: _380  and  _382
REMARK  157  A    between atoms: _382  and  _383
REMARK  158  A    between atoms: _382  and  _385
REMARK  159  A    between atoms: _385  and  _386
REMARK  160  A    between atoms: _390  and  ZN_432
REMARK  161  A    between atoms: _391  and  _393
REMARK  162  A    between atoms: _393  and  _394
REMARK  163  A    between atoms: _393  and  _396
REMARK  164  A    between atoms: _396  and  _397
REMARK  165  A    between atoms: _402  and  _403
REMARK  166  A    between atoms: _405  and  _407
REMARK  167  A    between atoms: _407  and  _408
REMARK  168  A    between atoms: _407  and  _410
REMARK  169  A    between atoms: _410  and  _411
REMARK  170  A    between atoms: _411  and  _412
REMARK  171  A    between atoms: _412  and  _413
REMARK  172  A    between atoms: _413  and  _414
REMARK  173  A    between atoms: _418  and  _420
REMARK  174  A    between atoms: _420  and  _421
REMARK  175  A    between atoms: _420  and  _423
REMARK  176  A    between atoms: _423  and  _424
REMARK  177  A    between atoms: _429  and  _430
REMARK                            x       y       z     vdW  Elec       q    Type
REMARK                         _______ _______ _______ _____ _____    ______ ____
ROOT
ATOM      1  C   LYS A   1      19.682  41.053   9.438  0.00  0.00    +0.238 C 
ATOM      2  N   TYR A   2      20.863  41.025  10.056  0.00  0.00    -0.298 N 
ATOM      3  H   TYR A   2      21.274  40.117  10.352  0.00  0.00    +0.150 HD
ATOM      4  O   LYS A   1      19.157  42.117   9.114  0.00  0.00    -0.274 OA
ENDROOT
BRANCH   1   5
ATOM      5  CA  LYS A   1      18.953  39.713   9.258  0.00  0.00    +0.145 C 
BRANCH   5   6
ATOM      6  N   LYS A   1      19.864  38.602   9.115  0.00  0.00    -0.238 NA
ATOM      7  H   LYS A   1      19.740  37.776   9.735  0.00  0.00    +0.142 HD
ENDBRANCH   5   6
BRANCH   5   8
ATOM      8  CB  LYS A   1      18.077  39.398  10.482  0.00  0.00    +0.026 C 
BRANCH   8   9
ATOM      9  CG  LYS A   1      16.981  40.361  10.670  0.00  0.00    -0.000 C 
BRANCH   9  10
ATOM     10  CD  LYS A   1      16.108  39.951  11.862  0.00  0.00    -0.024 C 
BRANCH  10  11
ATOM     11  CE  LYS A   1      14.920  40.754  11.811  0.00  0.00    -0.086 C 
BRANCH  11  12
ATOM     12  NZ  LYS A   1      14.084  40.339  12.968  0.00  0.00    +0.380 N 
ATOM     13  HZ1 LYS A   1      14.609  40.505  13.850  0.00  0.00    -0.089 HD
ATOM     14  HZ2 LYS A   1      13.205  40.895  12.976  0.00  0.00    -0.089 HD
ATOM     15  HZ3 LYS A   1      13.855  39.328  12.884  0.00  0.00    -0.089 HD
ENDBRANCH  11  12
ENDBRANCH  10  11
ENDBRANCH   9  10
ENDBRANCH   8   9
ENDBRANCH   5   8
ENDBRANCH   1   5
BRANCH   2  16
ATOM     16  CA  TYR A   2      21.590  42.291  10.321  0.00  0.00    +0.141 C 
BRANCH  16  17
ATOM     17  C   TYR A   2      22.078  42.987   9.066  0.00  0.00    +0.227 C 
ATOM     18  O   TYR A   2      22.254  44.221   9.077  0.00  0.00    -0.286 OA
ENDBRANCH  16  17
BRANCH  16  19
ATOM     19  CB  TYR A   2      22.801  42.045  11.224  0.00  0.00    +0.054 C 
BRANCH  19  20
ATOM     20  CG  TYR A   2      22.498  41.567  12.612  0.00  0.00    -0.020 A 
ATOM     21  CD2 TYR A   2      21.426  42.111  13.362  0.00  0.00    -0.001 A 
ATOM     22  CE2 TYR A   2      21.241  41.754  14.688  0.00  0.00    +0.036 A 
ATOM     23  CZ  TYR A   2      22.063  40.836  15.232  0.00  0.00    +0.134 A 
ATOM     24  CE1 TYR A   2      23.158  40.304  14.548  0.00  0.00    +0.036 A 
ATOM     25  CD1 TYR A   2      23.373  40.678  13.240  0.00  0.00    -0.001 A 
BRANCH  23  26
ATOM     26  OH  TYR A   2      21.873  40.449  16.574  0.00  0.00    -0.506 OA
ATOM     27  HH  TYR A   2      21.067  40.897  16.934  0.00  0.00    +0.292 HD
ENDBRANCH  23  26
ENDBRANCH  19  20
ENDBRANCH  16  19
ENDBRANCH   2  16
TORSDOF 12
REMARK  Name = ../refined-set-2016/3ff3/3ff3_pocket.pdb
REMARK  177 active torsions:
REMARK  status: ('A' for Active; 'I' for Inactive)
REMARK    1  A    between atoms: _1  and  _3
REMARK    2  A    between atoms: _3  and  _4
REMARK    3  A    between atoms: _3  and  _6
REMARK    4  A    between atoms: _6  and  _7
REMARK    5  A    between atoms: _13  and  _15
REMARK    6  A    between atoms: _15  and  _16
REMARK    7  A    between atoms: _15  and  _18
REMARK    8  A    between atoms: _18  and  _19
REMARK    9  A    between atoms: _25  and  _27
REMARK   10  A    between atoms: _27  and  _28
REMARK   11  A    between atoms: _27  and  _30
REMARK   12  A    between atoms: _30  and  _31
REMARK   13  A    between atoms: _31  and  _32
REMARK   14  A    between atoms: _32  and  _33
REMARK   15  A    between atoms: _42  and  _44
REMARK   16  A    between atoms: _44  and  _45
REMARK   17  A    between atoms: _47  and  _49
REMARK   18  A    between atoms: _49  and  _50
REMARK   19  A    between atoms: _49  and  _52
REMARK   20  A    between atoms: _52  and  _53
REMARK   21  A    between atoms: _53  and  _54
REMARK   22  A    between atoms: _59  and  _61
REMARK   23  A    between atoms: _61  and  _62
REMARK   24  A    between atoms: _61  and  _64
REMARK   25  A    between atoms: _64  and  _65
REMARK   26  A    between atoms: _65  and  _66
REMARK   27  A    between atoms: _66  and  _67
REMARK   28  A    between atoms: _76  and  _78
REMARK   29  A    between atoms: _78  and  _79
REMARK   30  A    between atoms: _81  and  _83
REMARK   31  A    between atoms: _83  and  _84
REMARK   32  A    between atoms: _83  and  _86
REMARK   33  A    between atoms: _86  and  _87
REMARK   34  A    between atoms: _92  and  _94
REMARK   35  A    between atoms: _94  and  _95
REMARK   36  A    between atoms: _94  and  _97
REMARK   37  A    between atoms: _100  and  _102
REMARK   38  A    between atoms: _102  and  _103
REMARK   39  A    between atoms: _102  and  _105
REMARK   40  A    between atoms: _105  and  _106
REMARK   41  A    between atoms: _109  and  _111
REMARK   42  A    between atoms: _111  and  _112
REMARK   43  A    between atoms: _111  and  _114
REMARK   44  A    between atoms: _114  and  _115
REMARK   45  A    between atoms: _120  and  _122
REMARK   46  A    between atoms: _122  and  _123
REMARK   47  A    between atoms: _122  and  _125
REMARK   48  A    between atoms: _125  and  _126
REMARK   49  A    between atoms: _129  and  _131
REMARK   50  A    between atoms: _131  and  _132
REMARK   51  A    between atoms: _131  and  _134
REMARK   52  A    between atoms: _134  and  _135
REMARK   53  A    between atoms: _140  and  _142
REMARK   54  A    between atoms: _142  and  _143
REMARK   55  A    between atoms: _145  and  _147
REMARK   56  A    between atoms: _147  and  _148
REMARK   57  A    between atoms: _150  and  _152
REMARK   58  A    between atoms: _152  and  _153
REMARK   59  A    between atoms: _152  and  _155
REMARK   60  A    between atoms: _155  and  _156
REMARK   61  A    between atoms: _160  and  ZN_433
REMARK   62  A    between atoms: _161  and  _163
REMARK   63  A    between atoms: _163  and  _164
REMARK   64  A    between atoms: _163  and  _166
REMARK   65  A    between atoms: _166  and  _167
REMARK   66  A    between atoms: _170  and  _172
REMARK   67  A    between atoms: _172  and  _173
REMARK   68  A    between atoms: _172  and  _175
REMARK   69  A    between atoms: _175  and  _176
REMARK   70  A    between atoms: _186  and  _188
REMARK   71  A    between atoms: _188  and  _189
REMARK   72  A    between atoms: _188  and  _191
REMARK   73  A    between atoms: _191  and  _192
REMARK   74  A    between atoms: _195  and  _197
REMARK   75  A    between atoms: _197  and  _198
REMARK   76  A    between atoms: _201  and  _203
REMARK   77  A    between atoms: _203  and  _204
REMARK   78  A    between atoms: _203  and  _206
REMARK   79  A    between atoms: _206  and  _207
REMARK   80  A    between atoms: _207  and  _208
REMARK   81  A    between atoms: _211  and  _213
REMARK   82  A    between atoms: _213  and  _214
REMARK   83  A    between atoms: _213  and  _216
REMARK   84  A    between atoms: _216  and  _217
REMARK   85  A    between atoms: _217  and  _218
REMARK   86  A    between atoms: _218  and  _220
REMARK   87  A    between atoms: _220  and  ZN_432
REMARK   88  A    between atoms: _221  and  _223
REMARK   89  A    between atoms: _223  and  _224
REMARK   90  A    between atoms: _223  and  _226
REMARK   91  A    between atoms: _226  and  _227
REMARK   92  A    between atoms: _233  and  _235
REMARK   93  A    between atoms: _235  and  _236
REMARK   94  A    between atoms: _238  and  _240
REMARK   95  A    between atoms: _240  and  _241
REMARK   96  A    between atoms: _240  and  _243
REMARK   97  A    between atoms: _243  and  _244
REMARK   98  A    between atoms: _247  and  _249
REMARK   99  A    between atoms: _249  and  _250
REMARK  100  A    between atoms: _249  and  _252
REMARK  101  A    between atoms: _252  and  _253
REMARK  102  A    between atoms: _256  and  _258
REMARK  103  A    between atoms: _258  and  _259
REMARK  104  A    between atoms: _258  and  _261
REMARK  105  A    between atoms: _261  and  _262
REMARK  106  A    between atoms: _267  and  _269
REMARK  107  A    between atoms: _269  and  _270
REMARK  108  A    between atoms: _269  and  _272
REMARK  109  A    between atoms: _272  and  _273
REMARK  110  A    between atoms: _273  and  _274
REMARK  111  A    between atoms: _274  and  ZN_433
REMARK  112  A    between atoms: _276  and  _278
REMARK  113  A    between atoms: _278  and  _279
REMARK  114  A    between atoms: _278  and  _281
REMARK  115  A    between atoms: _281  and  _282
REMARK  116  A    between atoms: _284  and  _286
REMARK  117  A    between atoms: _286  and  _287
REMARK  118  A    between atoms: _286  and  _289
REMARK  119  A    between atoms: _289  and  _290
REMARK  120  A    between atoms: _292  and  _294
REMARK  121  A    between atoms: _294  and  _295
REMARK  122  A    between atoms: _297  and  _299
REMARK  123  A    between atoms: _299  and  _300
REMARK  124  A    between atoms: _299  and  _302
REMARK  125  A    between atoms: _302  and  _303
REMARK  126  A    between atoms: _305  and  _307
REMARK  127  A    between atoms: _307  and  _308
REMARK  128  A    between atoms: _307  and  _310
REMARK  129  A    between atoms: _310  and  _311
REMARK  130  A    between atoms: _314  and  _316
REMARK  131  A    between atoms: _316  and  _317
REMARK  132  A    between atoms: _316  and  _319
REMARK  133  A    between atoms: _319  and  _320
REMARK  134  A    between atoms: _320  and  _321
REMARK  135  A    between atoms: _324  and  _326
REMARK  136  A    between atoms: _326  and  _327
REMARK  137  A    between atoms: _326  and  _329
REMARK  138  A    between atoms: _329  and  _330
REMARK  139  A    between atoms: _330  and  _331
REMARK  140  A    between atoms: _331  and  _332
REMARK  141  A    between atoms: _341  and  _343
REMARK  142  A    between atoms: _343  and  _344
REMARK  143  A    between atoms: _343  and  _346
REMARK  144  A    between atoms: _346  and  _347
REMARK  145  A    between atoms: _347  and  _348
REMARK  146  A    between atoms: _348  and  _349
REMARK  147  A    between atoms: _358  and  _360
REMARK  148  A    between atoms: _360  and  _361
REMARK  149  A    between atoms: _360  and  _363
REMARK  150  A    between atoms: _363  and  _364
REMARK  151  A    between atoms: _366  and  _368
REMARK  152  A    between atoms: _368  and  _369
REMARK  153  A    between atoms: _368  and  _371
REMARK  154  A    between atoms: _371  and  _372
REMARK  155  A    between atoms: _377  and  _378
REMARK  156  A    between atoms: _380  and  _382
REMARK  157  A    between atoms: _382  and  _383
REMARK  158  A    between atoms: _382  and  _385
REMARK  159  A    between atoms: _385  and  _386
REMARK  160  A    between atoms: _390  and  ZN_432
REMARK  161  A    between atoms: _391  and  _393
REMARK  162  A    between atoms: _393  and  _394
REMARK  163  A    between atoms: _393  and  _396
REMARK  164  A    between atoms: _396  and  _397
REMARK  165  A    between atoms: _402  and  _403
REMARK  166  A    between atoms: _405  and  _407
REMARK  167  A    between atoms: _407  and  _408
REMARK  168  A    between atoms: _407  and  _410
REMARK  169  A    between atoms: _410  and  _411
REMARK  170  A    between atoms: _411  and  _412
REMARK  171  A    between atoms: _412  and  _413
REMARK  172  A    between atoms: _413  and  _414
REMARK  173  A    between atoms: _418  and  _420
REMARK  174  A    between atoms: _420  and  _421
REMARK  175  A    between atoms: _420  and  _423
REMARK  176  A    between atoms: _423  and  _424
REMARK  177  A    between atoms: _429  and  _430
REMARK                            x       y       z     vdW  Elec       q    Type
REMARK                         _______ _______ _______ _____ _____    ______ ____
ROOT
ATOM      1  O   HOH     1      15.972  51.574  18.437  0.00  0.00    +0.000 OA
ENDROOT
TORSDOF 0
REMARK  Name = ../refined-set-2016/3ff3/3ff3_pocket.pdb
REMARK  177 active torsions:
REMARK  status: ('A' for Active; 'I' for Inactive)
REMARK    1  A    between atoms: _1  and  _3
REMARK    2  A    between atoms: _3  and  _4
REMARK    3  A    between atoms: _3  and  _6
REMARK    4  A    between atoms: _6  and  _7
REMARK    5  A    between atoms: _13  and  _15
REMARK    6  A    between atoms: _15  and  _16
REMARK    7  A    between atoms: _15  and  _18
REMARK    8  A    between atoms: _18  and  _19
REMARK    9  A    between atoms: _25  and  _27
REMARK   10  A    between atoms: _27  and  _28
REMARK   11  A    between atoms: _27  and  _30
REMARK   12  A    between atoms: _30  and  _31
REMARK   13  A    between atoms: _31  and  _32
REMARK   14  A    between atoms: _32  and  _33
REMARK   15  A    between atoms: _42  and  _44
REMARK   16  A    between atoms: _44  and  _45
REMARK   17  A    between atoms: _47  and  _49
REMARK   18  A    between atoms: _49  and  _50
REMARK   19  A    between atoms: _49  and  _52
REMARK   20  A    between atoms: _52  and  _53
REMARK   21  A    between atoms: _53  and  _54
REMARK   22  A    between atoms: _59  and  _61
REMARK   23  A    between atoms: _61  and  _62
REMARK   24  A    between atoms: _61  and  _64
REMARK   25  A    between atoms: _64  and  _65
REMARK   26  A    between atoms: _65  and  _66
REMARK   27  A    between atoms: _66  and  _67
REMARK   28  A    between atoms: _76  and  _78
REMARK   29  A    between atoms: _78  and  _79
REMARK   30  A    between atoms: _81  and  _83
REMARK   31  A    between atoms: _83  and  _84
REMARK   32  A    between atoms: _83  and  _86
REMARK   33  A    between atoms: _86  and  _87
REMARK   34  A    between atoms: _92  and  _94
REMARK   35  A    between atoms: _94  and  _95
REMARK   36  A    between atoms: _94  and  _97
REMARK   37  A    between atoms: _100  and  _102
REMARK   38  A    between atoms: _102  and  _103
REMARK   39  A    between atoms: _102  and  _105
REMARK   40  A    between atoms: _105  and  _106
REMARK   41  A    between atoms: _109  and  _111
REMARK   42  A    between atoms: _111  and  _112
REMARK   43  A    between atoms: _111  and  _114
REMARK   44  A    between atoms: _114  and  _115
REMARK   45  A    between atoms: _120  and  _122
REMARK   46  A    between atoms: _122  and  _123
REMARK   47  A    between atoms: _122  and  _125
REMARK   48  A    between atoms: _125  and  _126
REMARK   49  A    between atoms: _129  and  _131
REMARK   50  A    between atoms: _131  and  _132
REMARK   51  A    between atoms: _131  and  _134
REMARK   52  A    between atoms: _134  and  _135
REMARK   53  A    between atoms: _140  and  _142
REMARK   54  A    between atoms: _142  and  _143
REMARK   55  A    between atoms: _145  and  _147
REMARK   56  A    between atoms: _147  and  _148
REMARK   57  A    between atoms: _150  and  _152
REMARK   58  A    between atoms: _152  and  _153
REMARK   59  A    between atoms: _152  and  _155
REMARK   60  A    between atoms: _155  and  _156
REMARK   61  A    between atoms: _160  and  ZN_433
REMARK   62  A    between atoms: _161  and  _163
REMARK   63  A    between atoms: _163  and  _164
REMARK   64  A    between atoms: _163  and  _166
REMARK   65  A    between atoms: _166  and  _167
REMARK   66  A    between atoms: _170  and  _172
REMARK   67  A    between atoms: _172  and  _173
REMARK   68  A    between atoms: _172  and  _175
REMARK   69  A    between atoms: _175  and  _176
REMARK   70  A    between atoms: _186  and  _188
REMARK   71  A    between atoms: _188  and  _189
REMARK   72  A    between atoms: _188  and  _191
REMARK   73  A    between atoms: _191  and  _192
REMARK   74  A    between atoms: _195  and  _197
REMARK   75  A    between atoms: _197  and  _198
REMARK   76  A    between atoms: _201  and  _203
REMARK   77  A    between atoms: _203  and  _204
REMARK   78  A    between atoms: _203  and  _206
REMARK   79  A    between atoms: _206  and  _207
REMARK   80  A    between atoms: _207  and  _208
REMARK   81  A    between atoms: _211  and  _213
REMARK   82  A    between atoms: _213  and  _214
REMARK   83  A    between atoms: _213  and  _216
REMARK   84  A    between atoms: _216  and  _217
REMARK   85  A    between atoms: _217  and  _218
REMARK   86  A    between atoms: _218  and  _220
REMARK   87  A    between atoms: _220  and  ZN_432
REMARK   88  A    between atoms: _221  and  _223
REMARK   89  A    between atoms: _223  and  _224
REMARK   90  A    between atoms: _223  and  _226
REMARK   91  A    between atoms: _226  and  _227
REMARK   92  A    between atoms: _233  and  _235
REMARK   93  A    between atoms: _235  and  _236
REMARK   94  A    between atoms: _238  and  _240
REMARK   95  A    between atoms: _240  and  _241
REMARK   96  A    between atoms: _240  and  _243
REMARK   97  A    between atoms: _243  and  _244
REMARK   98  A    between atoms: _247  and  _249
REMARK   99  A    between atoms: _249  and  _250
REMARK  100  A    between atoms: _249  and  _252
REMARK  101  A    between atoms: _252  and  _253
REMARK  102  A    between atoms: _256  and  _258
REMARK  103  A    between atoms: _258  and  _259
REMARK  104  A    between atoms: _258  and  _261
REMARK  105  A    between atoms: _261  and  _262
REMARK  106  A    between atoms: _267  and  _269
REMARK  107  A    between atoms: _269  and  _270
REMARK  108  A    between atoms: _269  and  _272
REMARK  109  A    between atoms: _272  and  _273
REMARK  110  A    between atoms: _273  and  _274
REMARK  111  A    between atoms: _274  and  ZN_433
REMARK  112  A    between atoms: _276  and  _278
REMARK  113  A    between atoms: _278  and  _279
REMARK  114  A    between atoms: _278  and  _281
REMARK  115  A    between atoms: _281  and  _282
REMARK  116  A    between atoms: _284  and  _286
REMARK  117  A    between atoms: _286  and  _287
REMARK  118  A    between atoms: _286  and  _289
REMARK  119  A    between atoms: _289  and  _290
REMARK  120  A    between atoms: _292  and  _294
REMARK  121  A    between atoms: _294  and  _295
REMARK  122  A    between atoms: _297  and  _299
REMARK  123  A    between atoms: _299  and  _300
REMARK  124  A    between atoms: _299  and  _302
REMARK  125  A    between atoms: _302  and  _303
REMARK  126  A    between atoms: _305  and  _307
REMARK  127  A    between atoms: _307  and  _308
REMARK  128  A    between atoms: _307  and  _310
REMARK  129  A    between atoms: _310  and  _311
REMARK  130  A    between atoms: _314  and  _316
REMARK  131  A    between atoms: _316  and  _317
REMARK  132  A    between atoms: _316  and  _319
REMARK  133  A    between atoms: _319  and  _320
REMARK  134  A    between atoms: _320  and  _321
REMARK  135  A    between atoms: _324  and  _326
REMARK  136  A    between atoms: _326  and  _327
REMARK  137  A    between atoms: _326  and  _329
REMARK  138  A    between atoms: _329  and  _330
REMARK  139  A    between atoms: _330  and  _331
REMARK  140  A    between atoms: _331  and  _332
REMARK  141  A    between atoms: _341  and  _343
REMARK  142  A    between atoms: _343  and  _344
REMARK  143  A    between atoms: _343  and  _346
REMARK  144  A    between atoms: _346  and  _347
REMARK  145  A    between atoms: _347  and  _348
REMARK  146  A    between atoms: _348  and  _349
REMARK  147  A    between atoms: _358  and  _360
REMARK  148  A    between atoms: _360  and  _361
REMARK  149  A    between atoms: _360  and  _363
REMARK  150  A    between atoms: _363  and  _364
REMARK  151  A    between atoms: _366  and  _368
REMARK  152  A    between atoms: _368  and  _369
REMARK  153  A    between atoms: _368  and  _371
REMARK  154  A    between atoms: _371  and  _372
REMARK  155  A    between atoms: _377  and  _378
REMARK  156  A    between atoms: _380  and  _382
REMARK  157  A    between atoms: _382  and  _383
REMARK  158  A    between atoms: _382  and  _385
REMARK  159  A    between atoms: _385  and  _386
REMARK  160  A    between atoms: _390  and  ZN_432
REMARK  161  A    between atoms: _391  and  _393
REMARK  162  A    between atoms: _393  and  _394
REMARK  163  A    between atoms: _393  and  _396
REMARK  164  A    between atoms: _396  and  _397
REMARK  165  A    between atoms: _402  and  _403
REMARK  166  A    between atoms: _405  and  _407
REMARK  167  A    between atoms: _407  and  _408
REMARK  168  A    between atoms: _407  and  _410
REMARK  169  A    between atoms: _410  and  _411
REMARK  170  A    between atoms: _411  and  _412
REMARK  171  A    between atoms: _412  and  _413
REMARK  172  A    between atoms: _413  and  _414
REMARK  173  A    between atoms: _418  and  _420
REMARK  174  A    between atoms: _420  and  _421
REMARK  175  A    between atoms: _420  and  _423
REMARK  176  A    between atoms: _423  and  _424
REMARK  177  A    between atoms: _429  and  _430
REMARK                            x       y       z     vdW  Elec       q    Type
REMARK                         _______ _______ _______ _____ _____    ______ ____
ROOT
ATOM      1  O   HOH     1       9.579  42.116  13.624  0.00  0.00    +0.000 OA
ENDROOT
TORSDOF 0
REMARK  Name = ../refined-set-2016/3ff3/3ff3_pocket.pdb
REMARK  177 active torsions:
REMARK  status: ('A' for Active; 'I' for Inactive)
REMARK    1  A    between atoms: _1  and  _3
REMARK    2  A    between atoms: _3  and  _4
REMARK    3  A    between atoms: _3  and  _6
REMARK    4  A    between atoms: _6  and  _7
REMARK    5  A    between atoms: _13  and  _15
REMARK    6  A    between atoms: _15  and  _16
REMARK    7  A    between atoms: _15  and  _18
REMARK    8  A    between atoms: _18  and  _19
REMARK    9  A    between atoms: _25  and  _27
REMARK   10  A    between atoms: _27  and  _28
REMARK   11  A    between atoms: _27  and  _30
REMARK   12  A    between atoms: _30  and  _31
REMARK   13  A    between atoms: _31  and  _32
REMARK   14  A    between atoms: _32  and  _33
REMARK   15  A    between atoms: _42  and  _44
REMARK   16  A    between atoms: _44  and  _45
REMARK   17  A    between atoms: _47  and  _49
REMARK   18  A    between atoms: _49  and  _50
REMARK   19  A    between atoms: _49  and  _52
REMARK   20  A    between atoms: _52  and  _53
REMARK   21  A    between atoms: _53  and  _54
REMARK   22  A    between atoms: _59  and  _61
REMARK   23  A    between atoms: _61  and  _62
REMARK   24  A    between atoms: _61  and  _64
REMARK   25  A    between atoms: _64  and  _65
REMARK   26  A    between atoms: _65  and  _66
REMARK   27  A    between atoms: _66  and  _67
REMARK   28  A    between atoms: _76  and  _78
REMARK   29  A    between atoms: _78  and  _79
REMARK   30  A    between atoms: _81  and  _83
REMARK   31  A    between atoms: _83  and  _84
REMARK   32  A    between atoms: _83  and  _86
REMARK   33  A    between atoms: _86  and  _87
REMARK   34  A    between atoms: _92  and  _94
REMARK   35  A    between atoms: _94  and  _95
REMARK   36  A    between atoms: _94  and  _97
REMARK   37  A    between atoms: _100  and  _102
REMARK   38  A    between atoms: _102  and  _103
REMARK   39  A    between atoms: _102  and  _105
REMARK   40  A    between atoms: _105  and  _106
REMARK   41  A    between atoms: _109  and  _111
REMARK   42  A    between atoms: _111  and  _112
REMARK   43  A    between atoms: _111  and  _114
REMARK   44  A    between atoms: _114  and  _115
REMARK   45  A    between atoms: _120  and  _122
REMARK   46  A    between atoms: _122  and  _123
REMARK   47  A    between atoms: _122  and  _125
REMARK   48  A    between atoms: _125  and  _126
REMARK   49  A    between atoms: _129  and  _131
REMARK   50  A    between atoms: _131  and  _132
REMARK   51  A    between atoms: _131  and  _134
REMARK   52  A    between atoms: _134  and  _135
REMARK   53  A    between atoms: _140  and  _142
REMARK   54  A    between atoms: _142  and  _143
REMARK   55  A    between atoms: _145  and  _147
REMARK   56  A    between atoms: _147  and  _148
REMARK   57  A    between atoms: _150  and  _152
REMARK   58  A    between atoms: _152  and  _153
REMARK   59  A    between atoms: _152  and  _155
REMARK   60  A    between atoms: _155  and  _156
REMARK   61  A    between atoms: _160  and  ZN_433
REMARK   62  A    between atoms: _161  and  _163
REMARK   63  A    between atoms: _163  and  _164
REMARK   64  A    between atoms: _163  and  _166
REMARK   65  A    between atoms: _166  and  _167
REMARK   66  A    between atoms: _170  and  _172
REMARK   67  A    between atoms: _172  and  _173
REMARK   68  A    between atoms: _172  and  _175
REMARK   69  A    between atoms: _175  and  _176
REMARK   70  A    between atoms: _186  and  _188
REMARK   71  A    between atoms: _188  and  _189
REMARK   72  A    between atoms: _188  and  _191
REMARK   73  A    between atoms: _191  and  _192
REMARK   74  A    between atoms: _195  and  _197
REMARK   75  A    between atoms: _197  and  _198
REMARK   76  A    between atoms: _201  and  _203
REMARK   77  A    between atoms: _203  and  _204
REMARK   78  A    between atoms: _203  and  _206
REMARK   79  A    between atoms: _206  and  _207
REMARK   80  A    between atoms: _207  and  _208
REMARK   81  A    between atoms: _211  and  _213
REMARK   82  A    between atoms: _213  and  _214
REMARK   83  A    between atoms: _213  and  _216
REMARK   84  A    between atoms: _216  and  _217
REMARK   85  A    between atoms: _217  and  _218
REMARK   86  A    between atoms: _218  and  _220
REMARK   87  A    between atoms: _220  and  ZN_432
REMARK   88  A    between atoms: _221  and  _223
REMARK   89  A    between atoms: _223  and  _224
REMARK   90  A    between atoms: _223  and  _226
REMARK   91  A    between atoms: _226  and  _227
REMARK   92  A    between atoms: _233  and  _235
REMARK   93  A    between atoms: _235  and  _236
REMARK   94  A    between atoms: _238  and  _240
REMARK   95  A    between atoms: _240  and  _241
REMARK   96  A    between atoms: _240  and  _243
REMARK   97  A    between atoms: _243  and  _244
REMARK   98  A    between atoms: _247  and  _249
REMARK   99  A    between atoms: _249  and  _250
REMARK  100  A    between atoms: _249  and  _252
REMARK  101  A    between atoms: _252  and  _253
REMARK  102  A    between atoms: _256  and  _258
REMARK  103  A    between atoms: _258  and  _259
REMARK  104  A    between atoms: _258  and  _261
REMARK  105  A    between atoms: _261  and  _262
REMARK  106  A    between atoms: _267  and  _269
REMARK  107  A    between atoms: _269  and  _270
REMARK  108  A    between atoms: _269  and  _272
REMARK  109  A    between atoms: _272  and  _273
REMARK  110  A    between atoms: _273  and  _274
REMARK  111  A    between atoms: _274  and  ZN_433
REMARK  112  A    between atoms: _276  and  _278
REMARK  113  A    between atoms: _278  and  _279
REMARK  114  A    between atoms: _278  and  _281
REMARK  115  A    between atoms: _281  and  _282
REMARK  116  A    between atoms: _284  and  _286
REMARK  117  A    between atoms: _286  and  _287
REMARK  118  A    between atoms: _286  and  _289
REMARK  119  A    between atoms: _289  and  _290
REMARK  120  A    between atoms: _292  and  _294
REMARK  121  A    between atoms: _294  and  _295
REMARK  122  A    between atoms: _297  and  _299
REMARK  123  A    between atoms: _299  and  _300
REMARK  124  A    between atoms: _299  and  _302
REMARK  125  A    between atoms: _302  and  _303
REMARK  126  A    between atoms: _305  and  _307
REMARK  127  A    between atoms: _307  and  _308
REMARK  128  A    between atoms: _307  and  _310
REMARK  129  A    between atoms: _310  and  _311
REMARK  130  A    between atoms: _314  and  _316
REMARK  131  A    between atoms: _316  and  _317
REMARK  132  A    between atoms: _316  and  _319
REMARK  133  A    between atoms: _319  and  _320
REMARK  134  A    between atoms: _320  and  _321
REMARK  135  A    between atoms: _324  and  _326
REMARK  136  A    between atoms: _326  and  _327
REMARK  137  A    between atoms: _326  and  _329
REMARK  138  A    between atoms: _329  and  _330
REMARK  139  A    between atoms: _330  and  _331
REMARK  140  A    between atoms: _331  and  _332
REMARK  141  A    between atoms: _341  and  _343
REMARK  142  A    between atoms: _343  and  _344
REMARK  143  A    between atoms: _343  and  _346
REMARK  144  A    between atoms: _346  and  _347
REMARK  145  A    between atoms: _347  and  _348
REMARK  146  A    between atoms: _348  and  _349
REMARK  147  A    between atoms: _358  and  _360
REMARK  148  A    between atoms: _360  and  _361
REMARK  149  A    between atoms: _360  and  _363
REMARK  150  A    between atoms: _363  and  _364
REMARK  151  A    between atoms: _366  and  _368
REMARK  152  A    between atoms: _368  and  _369
REMARK  153  A    between atoms: _368  and  _371
REMARK  154  A    between atoms: _371  and  _372
REMARK  155  A    between atoms: _377  and  _378
REMARK  156  A    between atoms: _380  and  _382
REMARK  157  A    between atoms: _382  and  _383
REMARK  158  A    between atoms: _382  and  _385
REMARK  159  A    between atoms: _385  and  _386
REMARK  160  A    between atoms: _390  and  ZN_432
REMARK  161  A    between atoms: _391  and  _393
REMARK  162  A    between atoms: _393  and  _394
REMARK  163  A    between atoms: _393  and  _396
REMARK  164  A    between atoms: _396  and  _397
REMARK  165  A    between atoms: _402  and  _403
REMARK  166  A    between atoms: _405  and  _407
REMARK  167  A    between atoms: _407  and  _408
REMARK  168  A    between atoms: _407  and  _410
REMARK  169  A    between atoms: _410  and  _411
REMARK  170  A    between atoms: _411  and  _412
REMARK  171  A    between atoms: _412  and  _413
REMARK  172  A    between atoms: _413  and  _414
REMARK  173  A    between atoms: _418  and  _420
REMARK  174  A    between atoms: _420  and  _421
REMARK  175  A    between atoms: _420  and  _423
REMARK  176  A    between atoms: _423  and  _424
REMARK  177  A    between atoms: _429  and  _430
REMARK                            x       y       z     vdW  Elec       q    Type
REMARK                         _______ _______ _______ _____ _____    ______ ____
ROOT
ATOM      1  O   HOH     1      17.072  35.905  25.287  0.00  0.00    +0.000 OA
ENDROOT
TORSDOF 0
REMARK  Name = ../refined-set-2016/3ff3/3ff3_pocket.pdb
REMARK  177 active torsions:
REMARK  status: ('A' for Active; 'I' for Inactive)
REMARK    1  A    between atoms: _1  and  _3
REMARK    2  A    between atoms: _3  and  _4
REMARK    3  A    between atoms: _3  and  _6
REMARK    4  A    between atoms: _6  and  _7
REMARK    5  A    between atoms: _13  and  _15
REMARK    6  A    between atoms: _15  and  _16
REMARK    7  A    between atoms: _15  and  _18
REMARK    8  A    between atoms: _18  and  _19
REMARK    9  A    between atoms: _25  and  _27
REMARK   10  A    between atoms: _27  and  _28
REMARK   11  A    between atoms: _27  and  _30
REMARK   12  A    between atoms: _30  and  _31
REMARK   13  A    between atoms: _31  and  _32
REMARK   14  A    between atoms: _32  and  _33
REMARK   15  A    between atoms: _42  and  _44
REMARK   16  A    between atoms: _44  and  _45
REMARK   17  A    between atoms: _47  and  _49
REMARK   18  A    between atoms: _49  and  _50
REMARK   19  A    between atoms: _49  and  _52
REMARK   20  A    between atoms: _52  and  _53
REMARK   21  A    between atoms: _53  and  _54
REMARK   22  A    between atoms: _59  and  _61
REMARK   23  A    between atoms: _61  and  _62
REMARK   24  A    between atoms: _61  and  _64
REMARK   25  A    between atoms: _64  and  _65
REMARK   26  A    between atoms: _65  and  _66
REMARK   27  A    between atoms: _66  and  _67
REMARK   28  A    between atoms: _76  and  _78
REMARK   29  A    between atoms: _78  and  _79
REMARK   30  A    between atoms: _81  and  _83
REMARK   31  A    between atoms: _83  and  _84
REMARK   32  A    between atoms: _83  and  _86
REMARK   33  A    between atoms: _86  and  _87
REMARK   34  A    between atoms: _92  and  _94
REMARK   35  A    between atoms: _94  and  _95
REMARK   36  A    between atoms: _94  and  _97
REMARK   37  A    between atoms: _100  and  _102
REMARK   38  A    between atoms: _102  and  _103
REMARK   39  A    between atoms: _102  and  _105
REMARK   40  A    between atoms: _105  and  _106
REMARK   41  A    between atoms: _109  and  _111
REMARK   42  A    between atoms: _111  and  _112
REMARK   43  A    between atoms: _111  and  _114
REMARK   44  A    between atoms: _114  and  _115
REMARK   45  A    between atoms: _120  and  _122
REMARK   46  A    between atoms: _122  and  _123
REMARK   47  A    between atoms: _122  and  _125
REMARK   48  A    between atoms: _125  and  _126
REMARK   49  A    between atoms: _129  and  _131
REMARK   50  A    between atoms: _131  and  _132
REMARK   51  A    between atoms: _131  and  _134
REMARK   52  A    between atoms: _134  and  _135
REMARK   53  A    between atoms: _140  and  _142
REMARK   54  A    between atoms: _142  and  _143
REMARK   55  A    between atoms: _145  and  _147
REMARK   56  A    between atoms: _147  and  _148
REMARK   57  A    between atoms: _150  and  _152
REMARK   58  A    between atoms: _152  and  _153
REMARK   59  A    between atoms: _152  and  _155
REMARK   60  A    between atoms: _155  and  _156
REMARK   61  A    between atoms: _160  and  ZN_433
REMARK   62  A    between atoms: _161  and  _163
REMARK   63  A    between atoms: _163  and  _164
REMARK   64  A    between atoms: _163  and  _166
REMARK   65  A    between atoms: _166  and  _167
REMARK   66  A    between atoms: _170  and  _172
REMARK   67  A    between atoms: _172  and  _173
REMARK   68  A    between atoms: _172  and  _175
REMARK   69  A    between atoms: _175  and  _176
REMARK   70  A    between atoms: _186  and  _188
REMARK   71  A    between atoms: _188  and  _189
REMARK   72  A    between atoms: _188  and  _191
REMARK   73  A    between atoms: _191  and  _192
REMARK   74  A    between atoms: _195  and  _197
REMARK   75  A    between atoms: _197  and  _198
REMARK   76  A    between atoms: _201  and  _203
REMARK   77  A    between atoms: _203  and  _204
REMARK   78  A    between atoms: _203  and  _206
REMARK   79  A    between atoms: _206  and  _207
REMARK   80  A    between atoms: _207  and  _208
REMARK   81  A    between atoms: _211  and  _213
REMARK   82  A    between atoms: _213  and  _214
REMARK   83  A    between atoms: _213  and  _216
REMARK   84  A    between atoms: _216  and  _217
REMARK   85  A    between atoms: _217  and  _218
REMARK   86  A    between atoms: _218  and  _220
REMARK   87  A    between atoms: _220  and  ZN_432
REMARK   88  A    between atoms: _221  and  _223
REMARK   89  A    between atoms: _223  and  _224
REMARK   90  A    between atoms: _223  and  _226
REMARK   91  A    between atoms: _226  and  _227
REMARK   92  A    between atoms: _233  and  _235
REMARK   93  A    between atoms: _235  and  _236
REMARK   94  A    between atoms: _238  and  _240
REMARK   95  A    between atoms: _240  and  _241
REMARK   96  A    between atoms: _240  and  _243
REMARK   97  A    between atoms: _243  and  _244
REMARK   98  A    between atoms: _247  and  _249
REMARK   99  A    between atoms: _249  and  _250
REMARK  100  A    between atoms: _249  and  _252
REMARK  101  A    between atoms: _252  and  _253
REMARK  102  A    between atoms: _256  and  _258
REMARK  103  A    between atoms: _258  and  _259
REMARK  104  A    between atoms: _258  and  _261
REMARK  105  A    between atoms: _261  and  _262
REMARK  106  A    between atoms: _267  and  _269
REMARK  107  A    between atoms: _269  and  _270
REMARK  108  A    between atoms: _269  and  _272
REMARK  109  A    between atoms: _272  and  _273
REMARK  110  A    between atoms: _273  and  _274
REMARK  111  A    between atoms: _274  and  ZN_433
REMARK  112  A    between atoms: _276  and  _278
REMARK  113  A    between atoms: _278  and  _279
REMARK  114  A    between atoms: _278  and  _281
REMARK  115  A    between atoms: _281  and  _282
REMARK  116  A    between atoms: _284  and  _286
REMARK  117  A    between atoms: _286  and  _287
REMARK  118  A    between atoms: _286  and  _289
REMARK  119  A    between atoms: _289  and  _290
REMARK  120  A    between atoms: _292  and  _294
REMARK  121  A    between atoms: _294  and  _295
REMARK  122  A    between atoms: _297  and  _299
REMARK  123  A    between atoms: _299  and  _300
REMARK  124  A    between atoms: _299  and  _302
REMARK  125  A    between atoms: _302  and  _303
REMARK  126  A    between atoms: _305  and  _307
REMARK  127  A    between atoms: _307  and  _308
REMARK  128  A    between atoms: _307  and  _310
REMARK  129  A    between atoms: _310  and  _311
REMARK  130  A    between atoms: _314  and  _316
REMARK  131  A    between atoms: _316  and  _317
REMARK  132  A    between atoms: _316  and  _319
REMARK  133  A    between atoms: _319  and  _320
REMARK  134  A    between atoms: _320  and  _321
REMARK  135  A    between atoms: _324  and  _326
REMARK  136  A    between atoms: _326  and  _327
REMARK  137  A    between atoms: _326  and  _329
REMARK  138  A    between atoms: _329  and  _330
REMARK  139  A    between atoms: _330  and  _331
REMARK  140  A    between atoms: _331  and  _332
REMARK  141  A    between atoms: _341  and  _343
REMARK  142  A    between atoms: _343  and  _344
REMARK  143  A    between atoms: _343  and  _346
REMARK  144  A    between atoms: _346  and  _347
REMARK  145  A    between atoms: _347  and  _348
REMARK  146  A    between atoms: _348  and  _349
REMARK  147  A    between atoms: _358  and  _360
REMARK  148  A    between atoms: _360  and  _361
REMARK  149  A    between atoms: _360  and  _363
REMARK  150  A    between atoms: _363  and  _364
REMARK  151  A    between atoms: _366  and  _368
REMARK  152  A    between atoms: _368  and  _369
REMARK  153  A    between atoms: _368  and  _371
REMARK  154  A    between atoms: _371  and  _372
REMARK  155  A    between atoms: _377  and  _378
REMARK  156  A    between atoms: _380  and  _382
REMARK  157  A    between atoms: _382  and  _383
REMARK  158  A    between atoms: _382  and  _385
REMARK  159  A    between atoms: _385  and  _386
REMARK  160  A    between atoms: _390  and  ZN_432
REMARK  161  A    between atoms: _391  and  _393
REMARK  162  A    between atoms: _393  and  _394
REMARK  163  A    between atoms: _393  and  _396
REMARK  164  A    between atoms: _396  and  _397
REMARK  165  A    between atoms: _402  and  _403
REMARK  166  A    between atoms: _405  and  _407
REMARK  167  A    between atoms: _407  and  _408
REMARK  168  A    between atoms: _407  and  _410
REMARK  169  A    between atoms: _410  and  _411
REMARK  170  A    between atoms: _411  and  _412
REMARK  171  A    between atoms: _412  and  _413
REMARK  172  A    between atoms: _413  and  _414
REMARK  173  A    between atoms: _418  and  _420
REMARK  174  A    between atoms: _420  and  _421
REMARK  175  A    between atoms: _420  and  _423
REMARK  176  A    between atoms: _423  and  _424
REMARK  177  A    between atoms: _429  and  _430
REMARK                            x       y       z     vdW  Elec       q    Type
REMARK                         _______ _______ _______ _____ _____    ______ ____
ROOT
ATOM      1  O   HOH     1      22.382  37.695  16.937  0.00  0.00    +0.000 OA
ENDROOT
TORSDOF 0
REMARK  Name = ../refined-set-2016/3ff3/3ff3_pocket.pdb
REMARK  177 active torsions:
REMARK  status: ('A' for Active; 'I' for Inactive)
REMARK    1  A    between atoms: _1  and  _3
REMARK    2  A    between atoms: _3  and  _4
REMARK    3  A    between atoms: _3  and  _6
REMARK    4  A    between atoms: _6  and  _7
REMARK    5  A    between atoms: _13  and  _15
REMARK    6  A    between atoms: _15  and  _16
REMARK    7  A    between atoms: _15  and  _18
REMARK    8  A    between atoms: _18  and  _19
REMARK    9  A    between atoms: _25  and  _27
REMARK   10  A    between atoms: _27  and  _28
REMARK   11  A    between atoms: _27  and  _30
REMARK   12  A    between atoms: _30  and  _31
REMARK   13  A    between atoms: _31  and  _32
REMARK   14  A    between atoms: _32  and  _33
REMARK   15  A    between atoms: _42  and  _44
REMARK   16  A    between atoms: _44  and  _45
REMARK   17  A    between atoms: _47  and  _49
REMARK   18  A    between atoms: _49  and  _50
REMARK   19  A    between atoms: _49  and  _52
REMARK   20  A    between atoms: _52  and  _53
REMARK   21  A    between atoms: _53  and  _54
REMARK   22  A    between atoms: _59  and  _61
REMARK   23  A    between atoms: _61  and  _62
REMARK   24  A    between atoms: _61  and  _64
REMARK   25  A    between atoms: _64  and  _65
REMARK   26  A    between atoms: _65  and  _66
REMARK   27  A    between atoms: _66  and  _67
REMARK   28  A    between atoms: _76  and  _78
REMARK   29  A    between atoms: _78  and  _79
REMARK   30  A    between atoms: _81  and  _83
REMARK   31  A    between atoms: _83  and  _84
REMARK   32  A    between atoms: _83  and  _86
REMARK   33  A    between atoms: _86  and  _87
REMARK   34  A    between atoms: _92  and  _94
REMARK   35  A    between atoms: _94  and  _95
REMARK   36  A    between atoms: _94  and  _97
REMARK   37  A    between atoms: _100  and  _102
REMARK   38  A    between atoms: _102  and  _103
REMARK   39  A    between atoms: _102  and  _105
REMARK   40  A    between atoms: _105  and  _106
REMARK   41  A    between atoms: _109  and  _111
REMARK   42  A    between atoms: _111  and  _112
REMARK   43  A    between atoms: _111  and  _114
REMARK   44  A    between atoms: _114  and  _115
REMARK   45  A    between atoms: _120  and  _122
REMARK   46  A    between atoms: _122  and  _123
REMARK   47  A    between atoms: _122  and  _125
REMARK   48  A    between atoms: _125  and  _126
REMARK   49  A    between atoms: _129  and  _131
REMARK   50  A    between atoms: _131  and  _132
REMARK   51  A    between atoms: _131  and  _134
REMARK   52  A    between atoms: _134  and  _135
REMARK   53  A    between atoms: _140  and  _142
REMARK   54  A    between atoms: _142  and  _143
REMARK   55  A    between atoms: _145  and  _147
REMARK   56  A    between atoms: _147  and  _148
REMARK   57  A    between atoms: _150  and  _152
REMARK   58  A    between atoms: _152  and  _153
REMARK   59  A    between atoms: _152  and  _155
REMARK   60  A    between atoms: _155  and  _156
REMARK   61  A    between atoms: _160  and  ZN_433
REMARK   62  A    between atoms: _161  and  _163
REMARK   63  A    between atoms: _163  and  _164
REMARK   64  A    between atoms: _163  and  _166
REMARK   65  A    between atoms: _166  and  _167
REMARK   66  A    between atoms: _170  and  _172
REMARK   67  A    between atoms: _172  and  _173
REMARK   68  A    between atoms: _172  and  _175
REMARK   69  A    between atoms: _175  and  _176
REMARK   70  A    between atoms: _186  and  _188
REMARK   71  A    between atoms: _188  and  _189
REMARK   72  A    between atoms: _188  and  _191
REMARK   73  A    between atoms: _191  and  _192
REMARK   74  A    between atoms: _195  and  _197
REMARK   75  A    between atoms: _197  and  _198
REMARK   76  A    between atoms: _201  and  _203
REMARK   77  A    between atoms: _203  and  _204
REMARK   78  A    between atoms: _203  and  _206
REMARK   79  A    between atoms: _206  and  _207
REMARK   80  A    between atoms: _207  and  _208
REMARK   81  A    between atoms: _211  and  _213
REMARK   82  A    between atoms: _213  and  _214
REMARK   83  A    between atoms: _213  and  _216
REMARK   84  A    between atoms: _216  and  _217
REMARK   85  A    between atoms: _217  and  _218
REMARK   86  A    between atoms: _218  and  _220
REMARK   87  A    between atoms: _220  and  ZN_432
REMARK   88  A    between atoms: _221  and  _223
REMARK   89  A    between atoms: _223  and  _224
REMARK   90  A    between atoms: _223  and  _226
REMARK   91  A    between atoms: _226  and  _227
REMARK   92  A    between atoms: _233  and  _235
REMARK   93  A    between atoms: _235  and  _236
REMARK   94  A    between atoms: _238  and  _240
REMARK   95  A    between atoms: _240  and  _241
REMARK   96  A    between atoms: _240  and  _243
REMARK   97  A    between atoms: _243  and  _244
REMARK   98  A    between atoms: _247  and  _249
REMARK   99  A    between atoms: _249  and  _250
REMARK  100  A    between atoms: _249  and  _252
REMARK  101  A    between atoms: _252  and  _253
REMARK  102  A    between atoms: _256  and  _258
REMARK  103  A    between atoms: _258  and  _259
REMARK  104  A    between atoms: _258  and  _261
REMARK  105  A    between atoms: _261  and  _262
REMARK  106  A    between atoms: _267  and  _269
REMARK  107  A    between atoms: _269  and  _270
REMARK  108  A    between atoms: _269  and  _272
REMARK  109  A    between atoms: _272  and  _273
REMARK  110  A    between atoms: _273  and  _274
REMARK  111  A    between atoms: _274  and  ZN_433
REMARK  112  A    between atoms: _276  and  _278
REMARK  113  A    between atoms: _278  and  _279
REMARK  114  A    between atoms: _278  and  _281
REMARK  115  A    between atoms: _281  and  _282
REMARK  116  A    between atoms: _284  and  _286
REMARK  117  A    between atoms: _286  and  _287
REMARK  118  A    between atoms: _286  and  _289
REMARK  119  A    between atoms: _289  and  _290
REMARK  120  A    between atoms: _292  and  _294
REMARK  121  A    between atoms: _294  and  _295
REMARK  122  A    between atoms: _297  and  _299
REMARK  123  A    between atoms: _299  and  _300
REMARK  124  A    between atoms: _299  and  _302
REMARK  125  A    between atoms: _302  and  _303
REMARK  126  A    between atoms: _305  and  _307
REMARK  127  A    between atoms: _307  and  _308
REMARK  128  A    between atoms: _307  and  _310
REMARK  129  A    between atoms: _310  and  _311
REMARK  130  A    between atoms: _314  and  _316
REMARK  131  A    between atoms: _316  and  _317
REMARK  132  A    between atoms: _316  and  _319
REMARK  133  A    between atoms: _319  and  _320
REMARK  134  A    between atoms: _320  and  _321
REMARK  135  A    between atoms: _324  and  _326
REMARK  136  A    between atoms: _326  and  _327
REMARK  137  A    between atoms: _326  and  _329
REMARK  138  A    between atoms: _329  and  _330
REMARK  139  A    between atoms: _330  and  _331
REMARK  140  A    between atoms: _331  and  _332
REMARK  141  A    between atoms: _341  and  _343
REMARK  142  A    between atoms: _343  and  _344
REMARK  143  A    between atoms: _343  and  _346
REMARK  144  A    between atoms: _346  and  _347
REMARK  145  A    between atoms: _347  and  _348
REMARK  146  A    between atoms: _348  and  _349
REMARK  147  A    between atoms: _358  and  _360
REMARK  148  A    between atoms: _360  and  _361
REMARK  149  A    between atoms: _360  and  _363
REMARK  150  A    between atoms: _363  and  _364
REMARK  151  A    between atoms: _366  and  _368
REMARK  152  A    between atoms: _368  and  _369
REMARK  153  A    between atoms: _368  and  _371
REMARK  154  A    between atoms: _371  and  _372
REMARK  155  A    between atoms: _377  and  _378
REMARK  156  A    between atoms: _380  and  _382
REMARK  157  A    between atoms: _382  and  _383
REMARK  158  A    between atoms: _382  and  _385
REMARK  159  A    between atoms: _385  and  _386
REMARK  160  A    between atoms: _390  and  ZN_432
REMARK  161  A    between atoms: _391  and  _393
REMARK  162  A    between atoms: _393  and  _394
REMARK  163  A    between atoms: _393  and  _396
REMARK  164  A    between atoms: _396  and  _397
REMARK  165  A    between atoms: _402  and  _403
REMARK  166  A    between atoms: _405  and  _407
REMARK  167  A    between atoms: _407  and  _408
REMARK  168  A    between atoms: _407  and  _410
REMARK  169  A    between atoms: _410  and  _411
REMARK  170  A    between atoms: _411  and  _412
REMARK  171  A    between atoms: _412  and  _413
REMARK  172  A    between atoms: _413  and  _414
REMARK  173  A    between atoms: _418  and  _420
REMARK  174  A    between atoms: _420  and  _421
REMARK  175  A    between atoms: _420  and  _423
REMARK  176  A    between atoms: _423  and  _424
REMARK  177  A    between atoms: _429  and  _430
REMARK                            x       y       z     vdW  Elec       q    Type
REMARK                         _______ _______ _______ _____ _____    ______ ____
ROOT
ATOM      1  O   HOH     1      21.269  48.286  17.301  0.00  0.00    +0.000 OA
ENDROOT
TORSDOF 0
REMARK  Name = ../refined-set-2016/3ff3/3ff3_pocket.pdb
REMARK  177 active torsions:
REMARK  status: ('A' for Active; 'I' for Inactive)
REMARK    1  A    between atoms: _1  and  _3
REMARK    2  A    between atoms: _3  and  _4
REMARK    3  A    between atoms: _3  and  _6
REMARK    4  A    between atoms: _6  and  _7
REMARK    5  A    between atoms: _13  and  _15
REMARK    6  A    between atoms: _15  and  _16
REMARK    7  A    between atoms: _15  and  _18
REMARK    8  A    between atoms: _18  and  _19
REMARK    9  A    between atoms: _25  and  _27
REMARK   10  A    between atoms: _27  and  _28
REMARK   11  A    between atoms: _27  and  _30
REMARK   12  A    between atoms: _30  and  _31
REMARK   13  A    between atoms: _31  and  _32
REMARK   14  A    between atoms: _32  and  _33
REMARK   15  A    between atoms: _42  and  _44
REMARK   16  A    between atoms: _44  and  _45
REMARK   17  A    between atoms: _47  and  _49
REMARK   18  A    between atoms: _49  and  _50
REMARK   19  A    between atoms: _49  and  _52
REMARK   20  A    between atoms: _52  and  _53
REMARK   21  A    between atoms: _53  and  _54
REMARK   22  A    between atoms: _59  and  _61
REMARK   23  A    between atoms: _61  and  _62
REMARK   24  A    between atoms: _61  and  _64
REMARK   25  A    between atoms: _64  and  _65
REMARK   26  A    between atoms: _65  and  _66
REMARK   27  A    between atoms: _66  and  _67
REMARK   28  A    between atoms: _76  and  _78
REMARK   29  A    between atoms: _78  and  _79
REMARK   30  A    between atoms: _81  and  _83
REMARK   31  A    between atoms: _83  and  _84
REMARK   32  A    between atoms: _83  and  _86
REMARK   33  A    between atoms: _86  and  _87
REMARK   34  A    between atoms: _92  and  _94
REMARK   35  A    between atoms: _94  and  _95
REMARK   36  A    between atoms: _94  and  _97
REMARK   37  A    between atoms: _100  and  _102
REMARK   38  A    between atoms: _102  and  _103
REMARK   39  A    between atoms: _102  and  _105
REMARK   40  A    between atoms: _105  and  _106
REMARK   41  A    between atoms: _109  and  _111
REMARK   42  A    between atoms: _111  and  _112
REMARK   43  A    between atoms: _111  and  _114
REMARK   44  A    between atoms: _114  and  _115
REMARK   45  A    between atoms: _120  and  _122
REMARK   46  A    between atoms: _122  and  _123
REMARK   47  A    between atoms: _122  and  _125
REMARK   48  A    between atoms: _125  and  _126
REMARK   49  A    between atoms: _129  and  _131
REMARK   50  A    between atoms: _131  and  _132
REMARK   51  A    between atoms: _131  and  _134
REMARK   52  A    between atoms: _134  and  _135
REMARK   53  A    between atoms: _140  and  _142
REMARK   54  A    between atoms: _142  and  _143
REMARK   55  A    between atoms: _145  and  _147
REMARK   56  A    between atoms: _147  and  _148
REMARK   57  A    between atoms: _150  and  _152
REMARK   58  A    between atoms: _152  and  _153
REMARK   59  A    between atoms: _152  and  _155
REMARK   60  A    between atoms: _155  and  _156
REMARK   61  A    between atoms: _160  and  ZN_433
REMARK   62  A    between atoms: _161  and  _163
REMARK   63  A    between atoms: _163  and  _164
REMARK   64  A    between atoms: _163  and  _166
REMARK   65  A    between atoms: _166  and  _167
REMARK   66  A    between atoms: _170  and  _172
REMARK   67  A    between atoms: _172  and  _173
REMARK   68  A    between atoms: _172  and  _175
REMARK   69  A    between atoms: _175  and  _176
REMARK   70  A    between atoms: _186  and  _188
REMARK   71  A    between atoms: _188  and  _189
REMARK   72  A    between atoms: _188  and  _191
REMARK   73  A    between atoms: _191  and  _192
REMARK   74  A    between atoms: _195  and  _197
REMARK   75  A    between atoms: _197  and  _198
REMARK   76  A    between atoms: _201  and  _203
REMARK   77  A    between atoms: _203  and  _204
REMARK   78  A    between atoms: _203  and  _206
REMARK   79  A    between atoms: _206  and  _207
REMARK   80  A    between atoms: _207  and  _208
REMARK   81  A    between atoms: _211  and  _213
REMARK   82  A    between atoms: _213  and  _214
REMARK   83  A    between atoms: _213  and  _216
REMARK   84  A    between atoms: _216  and  _217
REMARK   85  A    between atoms: _217  and  _218
REMARK   86  A    between atoms: _218  and  _220
REMARK   87  A    between atoms: _220  and  ZN_432
REMARK   88  A    between atoms: _221  and  _223
REMARK   89  A    between atoms: _223  and  _224
REMARK   90  A    between atoms: _223  and  _226
REMARK   91  A    between atoms: _226  and  _227
REMARK   92  A    between atoms: _233  and  _235
REMARK   93  A    between atoms: _235  and  _236
REMARK   94  A    between atoms: _238  and  _240
REMARK   95  A    between atoms: _240  and  _241
REMARK   96  A    between atoms: _240  and  _243
REMARK   97  A    between atoms: _243  and  _244
REMARK   98  A    between atoms: _247  and  _249
REMARK   99  A    between atoms: _249  and  _250
REMARK  100  A    between atoms: _249  and  _252
REMARK  101  A    between atoms: _252  and  _253
REMARK  102  A    between atoms: _256  and  _258
REMARK  103  A    between atoms: _258  and  _259
REMARK  104  A    between atoms: _258  and  _261
REMARK  105  A    between atoms: _261  and  _262
REMARK  106  A    between atoms: _267  and  _269
REMARK  107  A    between atoms: _269  and  _270
REMARK  108  A    between atoms: _269  and  _272
REMARK  109  A    between atoms: _272  and  _273
REMARK  110  A    between atoms: _273  and  _274
REMARK  111  A    between atoms: _274  and  ZN_433
REMARK  112  A    between atoms: _276  and  _278
REMARK  113  A    between atoms: _278  and  _279
REMARK  114  A    between atoms: _278  and  _281
REMARK  115  A    between atoms: _281  and  _282
REMARK  116  A    between atoms: _284  and  _286
REMARK  117  A    between atoms: _286  and  _287
REMARK  118  A    between atoms: _286  and  _289
REMARK  119  A    between atoms: _289  and  _290
REMARK  120  A    between atoms: _292  and  _294
REMARK  121  A    between atoms: _294  and  _295
REMARK  122  A    between atoms: _297  and  _299
REMARK  123  A    between atoms: _299  and  _300
REMARK  124  A    between atoms: _299  and  _302
REMARK  125  A    between atoms: _302  and  _303
REMARK  126  A    between atoms: _305  and  _307
REMARK  127  A    between atoms: _307  and  _308
REMARK  128  A    between atoms: _307  and  _310
REMARK  129  A    between atoms: _310  and  _311
REMARK  130  A    between atoms: _314  and  _316
REMARK  131  A    between atoms: _316  and  _317
REMARK  132  A    between atoms: _316  and  _319
REMARK  133  A    between atoms: _319  and  _320
REMARK  134  A    between atoms: _320  and  _321
REMARK  135  A    between atoms: _324  and  _326
REMARK  136  A    between atoms: _326  and  _327
REMARK  137  A    between atoms: _326  and  _329
REMARK  138  A    between atoms: _329  and  _330
REMARK  139  A    between atoms: _330  and  _331
REMARK  140  A    between atoms: _331  and  _332
REMARK  141  A    between atoms: _341  and  _343
REMARK  142  A    between atoms: _343  and  _344
REMARK  143  A    between atoms: _343  and  _346
REMARK  144  A    between atoms: _346  and  _347
REMARK  145  A    between atoms: _347  and  _348
REMARK  146  A    between atoms: _348  and  _349
REMARK  147  A    between atoms: _358  and  _360
REMARK  148  A    between atoms: _360  and  _361
REMARK  149  A    between atoms: _360  and  _363
REMARK  150  A    between atoms: _363  and  _364
REMARK  151  A    between atoms: _366  and  _368
REMARK  152  A    between atoms: _368  and  _369
REMARK  153  A    between atoms: _368  and  _371
REMARK  154  A    between atoms: _371  and  _372
REMARK  155  A    between atoms: _377  and  _378
REMARK  156  A    between atoms: _380  and  _382
REMARK  157  A    between atoms: _382  and  _383
REMARK  158  A    between atoms: _382  and  _385
REMARK  159  A    between atoms: _385  and  _386
REMARK  160  A    between atoms: _390  and  ZN_432
REMARK  161  A    between atoms: _391  and  _393
REMARK  162  A    between atoms: _393  and  _394
REMARK  163  A    between atoms: _393  and  _396
REMARK  164  A    between atoms: _396  and  _397
REMARK  165  A    between atoms: _402  and  _403
REMARK  166  A    between atoms: _405  and  _407
REMARK  167  A    between atoms: _407  and  _408
REMARK  168  A    between atoms: _407  and  _410
REMARK  169  A    between atoms: _410  and  _411
REMARK  170  A    between atoms: _411  and  _412
REMARK  171  A    between atoms: _412  and  _413
REMARK  172  A    between atoms: _413  and  _414
REMARK  173  A    between atoms: _418  and  _420
REMARK  174  A    between atoms: _420  and  _421
REMARK  175  A    between atoms: _420  and  _423
REMARK  176  A    between atoms: _423  and  _424
REMARK  177  A    between atoms: _429  and  _430
REMARK                            x       y       z     vdW  Elec       q    Type
REMARK                         _______ _______ _______ _____ _____    ______ ____
ROOT
ATOM      1  O   HOH     1      23.421  47.743  19.384  0.00  0.00    +0.000 OA
ENDROOT
TORSDOF 0
REMARK  Name = ../refined-set-2016/3ff3/3ff3_pocket.pdb
REMARK  177 active torsions:
REMARK  status: ('A' for Active; 'I' for Inactive)
REMARK    1  A    between atoms: _1  and  _3
REMARK    2  A    between atoms: _3  and  _4
REMARK    3  A    between atoms: _3  and  _6
REMARK    4  A    between atoms: _6  and  _7
REMARK    5  A    between atoms: _13  and  _15
REMARK    6  A    between atoms: _15  and  _16
REMARK    7  A    between atoms: _15  and  _18
REMARK    8  A    between atoms: _18  and  _19
REMARK    9  A    between atoms: _25  and  _27
REMARK   10  A    between atoms: _27  and  _28
REMARK   11  A    between atoms: _27  and  _30
REMARK   12  A    between atoms: _30  and  _31
REMARK   13  A    between atoms: _31  and  _32
REMARK   14  A    between atoms: _32  and  _33
REMARK   15  A    between atoms: _42  and  _44
REMARK   16  A    between atoms: _44  and  _45
REMARK   17  A    between atoms: _47  and  _49
REMARK   18  A    between atoms: _49  and  _50
REMARK   19  A    between atoms: _49  and  _52
REMARK   20  A    between atoms: _52  and  _53
REMARK   21  A    between atoms: _53  and  _54
REMARK   22  A    between atoms: _59  and  _61
REMARK   23  A    between atoms: _61  and  _62
REMARK   24  A    between atoms: _61  and  _64
REMARK   25  A    between atoms: _64  and  _65
REMARK   26  A    between atoms: _65  and  _66
REMARK   27  A    between atoms: _66  and  _67
REMARK   28  A    between atoms: _76  and  _78
REMARK   29  A    between atoms: _78  and  _79
REMARK   30  A    between atoms: _81  and  _83
REMARK   31  A    between atoms: _83  and  _84
REMARK   32  A    between atoms: _83  and  _86
REMARK   33  A    between atoms: _86  and  _87
REMARK   34  A    between atoms: _92  and  _94
REMARK   35  A    between atoms: _94  and  _95
REMARK   36  A    between atoms: _94  and  _97
REMARK   37  A    between atoms: _100  and  _102
REMARK   38  A    between atoms: _102  and  _103
REMARK   39  A    between atoms: _102  and  _105
REMARK   40  A    between atoms: _105  and  _106
REMARK   41  A    between atoms: _109  and  _111
REMARK   42  A    between atoms: _111  and  _112
REMARK   43  A    between atoms: _111  and  _114
REMARK   44  A    between atoms: _114  and  _115
REMARK   45  A    between atoms: _120  and  _122
REMARK   46  A    between atoms: _122  and  _123
REMARK   47  A    between atoms: _122  and  _125
REMARK   48  A    between atoms: _125  and  _126
REMARK   49  A    between atoms: _129  and  _131
REMARK   50  A    between atoms: _131  and  _132
REMARK   51  A    between atoms: _131  and  _134
REMARK   52  A    between atoms: _134  and  _135
REMARK   53  A    between atoms: _140  and  _142
REMARK   54  A    between atoms: _142  and  _143
REMARK   55  A    between atoms: _145  and  _147
REMARK   56  A    between atoms: _147  and  _148
REMARK   57  A    between atoms: _150  and  _152
REMARK   58  A    between atoms: _152  and  _153
REMARK   59  A    between atoms: _152  and  _155
REMARK   60  A    between atoms: _155  and  _156
REMARK   61  A    between atoms: _160  and  ZN_433
REMARK   62  A    between atoms: _161  and  _163
REMARK   63  A    between atoms: _163  and  _164
REMARK   64  A    between atoms: _163  and  _166
REMARK   65  A    between atoms: _166  and  _167
REMARK   66  A    between atoms: _170  and  _172
REMARK   67  A    between atoms: _172  and  _173
REMARK   68  A    between atoms: _172  and  _175
REMARK   69  A    between atoms: _175  and  _176
REMARK   70  A    between atoms: _186  and  _188
REMARK   71  A    between atoms: _188  and  _189
REMARK   72  A    between atoms: _188  and  _191
REMARK   73  A    between atoms: _191  and  _192
REMARK   74  A    between atoms: _195  and  _197
REMARK   75  A    between atoms: _197  and  _198
REMARK   76  A    between atoms: _201  and  _203
REMARK   77  A    between atoms: _203  and  _204
REMARK   78  A    between atoms: _203  and  _206
REMARK   79  A    between atoms: _206  and  _207
REMARK   80  A    between atoms: _207  and  _208
REMARK   81  A    between atoms: _211  and  _213
REMARK   82  A    between atoms: _213  and  _214
REMARK   83  A    between atoms: _213  and  _216
REMARK   84  A    between atoms: _216  and  _217
REMARK   85  A    between atoms: _217  and  _218
REMARK   86  A    between atoms: _218  and  _220
REMARK   87  A    between atoms: _220  and  ZN_432
REMARK   88  A    between atoms: _221  and  _223
REMARK   89  A    between atoms: _223  and  _224
REMARK   90  A    between atoms: _223  and  _226
REMARK   91  A    between atoms: _226  and  _227
REMARK   92  A    between atoms: _233  and  _235
REMARK   93  A    between atoms: _235  and  _236
REMARK   94  A    between atoms: _238  and  _240
REMARK   95  A    between atoms: _240  and  _241
REMARK   96  A    between atoms: _240  and  _243
REMARK   97  A    between atoms: _243  and  _244
REMARK   98  A    between atoms: _247  and  _249
REMARK   99  A    between atoms: _249  and  _250
REMARK  100  A    between atoms: _249  and  _252
REMARK  101  A    between atoms: _252  and  _253
REMARK  102  A    between atoms: _256  and  _258
REMARK  103  A    between atoms: _258  and  _259
REMARK  104  A    between atoms: _258  and  _261
REMARK  105  A    between atoms: _261  and  _262
REMARK  106  A    between atoms: _267  and  _269
REMARK  107  A    between atoms: _269  and  _270
REMARK  108  A    between atoms: _269  and  _272
REMARK  109  A    between atoms: _272  and  _273
REMARK  110  A    between atoms: _273  and  _274
REMARK  111  A    between atoms: _274  and  ZN_433
REMARK  112  A    between atoms: _276  and  _278
REMARK  113  A    between atoms: _278  and  _279
REMARK  114  A    between atoms: _278  and  _281
REMARK  115  A    between atoms: _281  and  _282
REMARK  116  A    between atoms: _284  and  _286
REMARK  117  A    between atoms: _286  and  _287
REMARK  118  A    between atoms: _286  and  _289
REMARK  119  A    between atoms: _289  and  _290
REMARK  120  A    between atoms: _292  and  _294
REMARK  121  A    between atoms: _294  and  _295
REMARK  122  A    between atoms: _297  and  _299
REMARK  123  A    between atoms: _299  and  _300
REMARK  124  A    between atoms: _299  and  _302
REMARK  125  A    between atoms: _302  and  _303
REMARK  126  A    between atoms: _305  and  _307
REMARK  127  A    between atoms: _307  and  _308
REMARK  128  A    between atoms: _307  and  _310
REMARK  129  A    between atoms: _310  and  _311
REMARK  130  A    between atoms: _314  and  _316
REMARK  131  A    between atoms: _316  and  _317
REMARK  132  A    between atoms: _316  and  _319
REMARK  133  A    between atoms: _319  and  _320
REMARK  134  A    between atoms: _320  and  _321
REMARK  135  A    between atoms: _324  and  _326
REMARK  136  A    between atoms: _326  and  _327
REMARK  137  A    between atoms: _326  and  _329
REMARK  138  A    between atoms: _329  and  _330
REMARK  139  A    between atoms: _330  and  _331
REMARK  140  A    between atoms: _331  and  _332
REMARK  141  A    between atoms: _341  and  _343
REMARK  142  A    between atoms: _343  and  _344
REMARK  143  A    between atoms: _343  and  _346
REMARK  144  A    between atoms: _346  and  _347
REMARK  145  A    between atoms: _347  and  _348
REMARK  146  A    between atoms: _348  and  _349
REMARK  147  A    between atoms: _358  and  _360
REMARK  148  A    between atoms: _360  and  _361
REMARK  149  A    between atoms: _360  and  _363
REMARK  150  A    between atoms: _363  and  _364
REMARK  151  A    between atoms: _366  and  _368
REMARK  152  A    between atoms: _368  and  _369
REMARK  153  A    between atoms: _368  and  _371
REMARK  154  A    between atoms: _371  and  _372
REMARK  155  A    between atoms: _377  and  _378
REMARK  156  A    between atoms: _380  and  _382
REMARK  157  A    between atoms: _382  and  _383
REMARK  158  A    between atoms: _382  and  _385
REMARK  159  A    between atoms: _385  and  _386
REMARK  160  A    between atoms: _390  and  ZN_432
REMARK  161  A    between atoms: _391  and  _393
REMARK  162  A    between atoms: _393  and  _394
REMARK  163  A    between atoms: _393  and  _396
REMARK  164  A    between atoms: _396  and  _397
REMARK  165  A    between atoms: _402  and  _403
REMARK  166  A    between atoms: _405  and  _407
REMARK  167  A    between atoms: _407  and  _408
REMARK  168  A    between atoms: _407  and  _410
REMARK  169  A    between atoms: _410  and  _411
REMARK  170  A    between atoms: _411  and  _412
REMARK  171  A    between atoms: _412  and  _413
REMARK  172  A    between atoms: _413  and  _414
REMARK  173  A    between atoms: _418  and  _420
REMARK  174  A    between atoms: _420  and  _421
REMARK  175  A    between atoms: _420  and  _423
REMARK  176  A    between atoms: _423  and  _424
REMARK  177  A    between atoms: _429  and  _430
REMARK                            x       y       z     vdW  Elec       q    Type
REMARK                         _______ _______ _______ _____ _____    ______ ____
ROOT
ATOM      1  O   HOH     1      25.831  43.879  17.272  0.00  0.00    +0.000 OA
ENDROOT
TORSDOF 0
REMARK  Name = ../refined-set-2016/3ff3/3ff3_pocket.pdb
REMARK  177 active torsions:
REMARK  status: ('A' for Active; 'I' for Inactive)
REMARK    1  A    between atoms: _1  and  _3
REMARK    2  A    between atoms: _3  and  _4
REMARK    3  A    between atoms: _3  and  _6
REMARK    4  A    between atoms: _6  and  _7
REMARK    5  A    between atoms: _13  and  _15
REMARK    6  A    between atoms: _15  and  _16
REMARK    7  A    between atoms: _15  and  _18
REMARK    8  A    between atoms: _18  and  _19
REMARK    9  A    between atoms: _25  and  _27
REMARK   10  A    between atoms: _27  and  _28
REMARK   11  A    between atoms: _27  and  _30
REMARK   12  A    between atoms: _30  and  _31
REMARK   13  A    between atoms: _31  and  _32
REMARK   14  A    between atoms: _32  and  _33
REMARK   15  A    between atoms: _42  and  _44
REMARK   16  A    between atoms: _44  and  _45
REMARK   17  A    between atoms: _47  and  _49
REMARK   18  A    between atoms: _49  and  _50
REMARK   19  A    between atoms: _49  and  _52
REMARK   20  A    between atoms: _52  and  _53
REMARK   21  A    between atoms: _53  and  _54
REMARK   22  A    between atoms: _59  and  _61
REMARK   23  A    between atoms: _61  and  _62
REMARK   24  A    between atoms: _61  and  _64
REMARK   25  A    between atoms: _64  and  _65
REMARK   26  A    between atoms: _65  and  _66
REMARK   27  A    between atoms: _66  and  _67
REMARK   28  A    between atoms: _76  and  _78
REMARK   29  A    between atoms: _78  and  _79
REMARK   30  A    between atoms: _81  and  _83
REMARK   31  A    between atoms: _83  and  _84
REMARK   32  A    between atoms: _83  and  _86
REMARK   33  A    between atoms: _86  and  _87
REMARK   34  A    between atoms: _92  and  _94
REMARK   35  A    between atoms: _94  and  _95
REMARK   36  A    between atoms: _94  and  _97
REMARK   37  A    between atoms: _100  and  _102
REMARK   38  A    between atoms: _102  and  _103
REMARK   39  A    between atoms: _102  and  _105
REMARK   40  A    between atoms: _105  and  _106
REMARK   41  A    between atoms: _109  and  _111
REMARK   42  A    between atoms: _111  and  _112
REMARK   43  A    between atoms: _111  and  _114
REMARK   44  A    between atoms: _114  and  _115
REMARK   45  A    between atoms: _120  and  _122
REMARK   46  A    between atoms: _122  and  _123
REMARK   47  A    between atoms: _122  and  _125
REMARK   48  A    between atoms: _125  and  _126
REMARK   49  A    between atoms: _129  and  _131
REMARK   50  A    between atoms: _131  and  _132
REMARK   51  A    between atoms: _131  and  _134
REMARK   52  A    between atoms: _134  and  _135
REMARK   53  A    between atoms: _140  and  _142
REMARK   54  A    between atoms: _142  and  _143
REMARK   55  A    between atoms: _145  and  _147
REMARK   56  A    between atoms: _147  and  _148
REMARK   57  A    between atoms: _150  and  _152
REMARK   58  A    between atoms: _152  and  _153
REMARK   59  A    between atoms: _152  and  _155
REMARK   60  A    between atoms: _155  and  _156
REMARK   61  A    between atoms: _160  and  ZN_433
REMARK   62  A    between atoms: _161  and  _163
REMARK   63  A    between atoms: _163  and  _164
REMARK   64  A    between atoms: _163  and  _166
REMARK   65  A    between atoms: _166  and  _167
REMARK   66  A    between atoms: _170  and  _172
REMARK   67  A    between atoms: _172  and  _173
REMARK   68  A    between atoms: _172  and  _175
REMARK   69  A    between atoms: _175  and  _176
REMARK   70  A    between atoms: _186  and  _188
REMARK   71  A    between atoms: _188  and  _189
REMARK   72  A    between atoms: _188  and  _191
REMARK   73  A    between atoms: _191  and  _192
REMARK   74  A    between atoms: _195  and  _197
REMARK   75  A    between atoms: _197  and  _198
REMARK   76  A    between atoms: _201  and  _203
REMARK   77  A    between atoms: _203  and  _204
REMARK   78  A    between atoms: _203  and  _206
REMARK   79  A    between atoms: _206  and  _207
REMARK   80  A    between atoms: _207  and  _208
REMARK   81  A    between atoms: _211  and  _213
REMARK   82  A    between atoms: _213  and  _214
REMARK   83  A    between atoms: _213  and  _216
REMARK   84  A    between atoms: _216  and  _217
REMARK   85  A    between atoms: _217  and  _218
REMARK   86  A    between atoms: _218  and  _220
REMARK   87  A    between atoms: _220  and  ZN_432
REMARK   88  A    between atoms: _221  and  _223
REMARK   89  A    between atoms: _223  and  _224
REMARK   90  A    between atoms: _223  and  _226
REMARK   91  A    between atoms: _226  and  _227
REMARK   92  A    between atoms: _233  and  _235
REMARK   93  A    between atoms: _235  and  _236
REMARK   94  A    between atoms: _238  and  _240
REMARK   95  A    between atoms: _240  and  _241
REMARK   96  A    between atoms: _240  and  _243
REMARK   97  A    between atoms: _243  and  _244
REMARK   98  A    between atoms: _247  and  _249
REMARK   99  A    between atoms: _249  and  _250
REMARK  100  A    between atoms: _249  and  _252
REMARK  101  A    between atoms: _252  and  _253
REMARK  102  A    between atoms: _256  and  _258
REMARK  103  A    between atoms: _258  and  _259
REMARK  104  A    between atoms: _258  and  _261
REMARK  105  A    between atoms: _261  and  _262
REMARK  106  A    between atoms: _267  and  _269
REMARK  107  A    between atoms: _269  and  _270
REMARK  108  A    between atoms: _269  and  _272
REMARK  109  A    between atoms: _272  and  _273
REMARK  110  A    between atoms: _273  and  _274
REMARK  111  A    between atoms: _274  and  ZN_433
REMARK  112  A    between atoms: _276  and  _278
REMARK  113  A    between atoms: _278  and  _279
REMARK  114  A    between atoms: _278  and  _281
REMARK  115  A    between atoms: _281  and  _282
REMARK  116  A    between atoms: _284  and  _286
REMARK  117  A    between atoms: _286  and  _287
REMARK  118  A    between atoms: _286  and  _289
REMARK  119  A    between atoms: _289  and  _290
REMARK  120  A    between atoms: _292  and  _294
REMARK  121  A    between atoms: _294  and  _295
REMARK  122  A    between atoms: _297  and  _299
REMARK  123  A    between atoms: _299  and  _300
REMARK  124  A    between atoms: _299  and  _302
REMARK  125  A    between atoms: _302  and  _303
REMARK  126  A    between atoms: _305  and  _307
REMARK  127  A    between atoms: _307  and  _308
REMARK  128  A    between atoms: _307  and  _310
REMARK  129  A    between atoms: _310  and  _311
REMARK  130  A    between atoms: _314  and  _316
REMARK  131  A    between atoms: _316  and  _317
REMARK  132  A    between atoms: _316  and  _319
REMARK  133  A    between atoms: _319  and  _320
REMARK  134  A    between atoms: _320  and  _321
REMARK  135  A    between atoms: _324  and  _326
REMARK  136  A    between atoms: _326  and  _327
REMARK  137  A    between atoms: _326  and  _329
REMARK  138  A    between atoms: _329  and  _330
REMARK  139  A    between atoms: _330  and  _331
REMARK  140  A    between atoms: _331  and  _332
REMARK  141  A    between atoms: _341  and  _343
REMARK  142  A    between atoms: _343  and  _344
REMARK  143  A    between atoms: _343  and  _346
REMARK  144  A    between atoms: _346  and  _347
REMARK  145  A    between atoms: _347  and  _348
REMARK  146  A    between atoms: _348  and  _349
REMARK  147  A    between atoms: _358  and  _360
REMARK  148  A    between atoms: _360  and  _361
REMARK  149  A    between atoms: _360  and  _363
REMARK  150  A    between atoms: _363  and  _364
REMARK  151  A    between atoms: _366  and  _368
REMARK  152  A    between atoms: _368  and  _369
REMARK  153  A    between atoms: _368  and  _371
REMARK  154  A    between atoms: _371  and  _372
REMARK  155  A    between atoms: _377  and  _378
REMARK  156  A    between atoms: _380  and  _382
REMARK  157  A    between atoms: _382  and  _383
REMARK  158  A    between atoms: _382  and  _385
REMARK  159  A    between atoms: _385  and  _386
REMARK  160  A    between atoms: _390  and  ZN_432
REMARK  161  A    between atoms: _391  and  _393
REMARK  162  A    between atoms: _393  and  _394
REMARK  163  A    between atoms: _393  and  _396
REMARK  164  A    between atoms: _396  and  _397
REMARK  165  A    between atoms: _402  and  _403
REMARK  166  A    between atoms: _405  and  _407
REMARK  167  A    between atoms: _407  and  _408
REMARK  168  A    between atoms: _407  and  _410
REMARK  169  A    between atoms: _410  and  _411
REMARK  170  A    between atoms: _411  and  _412
REMARK  171  A    between atoms: _412  and  _413
REMARK  172  A    between atoms: _413  and  _414
REMARK  173  A    between atoms: _418  and  _420
REMARK  174  A    between atoms: _420  and  _421
REMARK  175  A    between atoms: _420  and  _423
REMARK  176  A    between atoms: _423  and  _424
REMARK  177  A    between atoms: _429  and  _430
REMARK                            x       y       z     vdW  Elec       q    Type
REMARK                         _______ _______ _______ _____ _____    ______ ____
ROOT
ATOM      1  O   HOH     1      20.044  45.225  18.669  0.00  0.00    +0.000 OA
ENDROOT
TORSDOF 0
REMARK  Name = ../refined-set-2016/3ff3/3ff3_pocket.pdb
REMARK  177 active torsions:
REMARK  status: ('A' for Active; 'I' for Inactive)
REMARK    1  A    between atoms: _1  and  _3
REMARK    2  A    between atoms: _3  and  _4
REMARK    3  A    between atoms: _3  and  _6
REMARK    4  A    between atoms: _6  and  _7
REMARK    5  A    between atoms: _13  and  _15
REMARK    6  A    between atoms: _15  and  _16
REMARK    7  A    between atoms: _15  and  _18
REMARK    8  A    between atoms: _18  and  _19
REMARK    9  A    between atoms: _25  and  _27
REMARK   10  A    between atoms: _27  and  _28
REMARK   11  A    between atoms: _27  and  _30
REMARK   12  A    between atoms: _30  and  _31
REMARK   13  A    between atoms: _31  and  _32
REMARK   14  A    between atoms: _32  and  _33
REMARK   15  A    between atoms: _42  and  _44
REMARK   16  A    between atoms: _44  and  _45
REMARK   17  A    between atoms: _47  and  _49
REMARK   18  A    between atoms: _49  and  _50
REMARK   19  A    between atoms: _49  and  _52
REMARK   20  A    between atoms: _52  and  _53
REMARK   21  A    between atoms: _53  and  _54
REMARK   22  A    between atoms: _59  and  _61
REMARK   23  A    between atoms: _61  and  _62
REMARK   24  A    between atoms: _61  and  _64
REMARK   25  A    between atoms: _64  and  _65
REMARK   26  A    between atoms: _65  and  _66
REMARK   27  A    between atoms: _66  and  _67
REMARK   28  A    between atoms: _76  and  _78
REMARK   29  A    between atoms: _78  and  _79
REMARK   30  A    between atoms: _81  and  _83
REMARK   31  A    between atoms: _83  and  _84
REMARK   32  A    between atoms: _83  and  _86
REMARK   33  A    between atoms: _86  and  _87
REMARK   34  A    between atoms: _92  and  _94
REMARK   35  A    between atoms: _94  and  _95
REMARK   36  A    between atoms: _94  and  _97
REMARK   37  A    between atoms: _100  and  _102
REMARK   38  A    between atoms: _102  and  _103
REMARK   39  A    between atoms: _102  and  _105
REMARK   40  A    between atoms: _105  and  _106
REMARK   41  A    between atoms: _109  and  _111
REMARK   42  A    between atoms: _111  and  _112
REMARK   43  A    between atoms: _111  and  _114
REMARK   44  A    between atoms: _114  and  _115
REMARK   45  A    between atoms: _120  and  _122
REMARK   46  A    between atoms: _122  and  _123
REMARK   47  A    between atoms: _122  and  _125
REMARK   48  A    between atoms: _125  and  _126
REMARK   49  A    between atoms: _129  and  _131
REMARK   50  A    between atoms: _131  and  _132
REMARK   51  A    between atoms: _131  and  _134
REMARK   52  A    between atoms: _134  and  _135
REMARK   53  A    between atoms: _140  and  _142
REMARK   54  A    between atoms: _142  and  _143
REMARK   55  A    between atoms: _145  and  _147
REMARK   56  A    between atoms: _147  and  _148
REMARK   57  A    between atoms: _150  and  _152
REMARK   58  A    between atoms: _152  and  _153
REMARK   59  A    between atoms: _152  and  _155
REMARK   60  A    between atoms: _155  and  _156
REMARK   61  A    between atoms: _160  and  ZN_433
REMARK   62  A    between atoms: _161  and  _163
REMARK   63  A    between atoms: _163  and  _164
REMARK   64  A    between atoms: _163  and  _166
REMARK   65  A    between atoms: _166  and  _167
REMARK   66  A    between atoms: _170  and  _172
REMARK   67  A    between atoms: _172  and  _173
REMARK   68  A    between atoms: _172  and  _175
REMARK   69  A    between atoms: _175  and  _176
REMARK   70  A    between atoms: _186  and  _188
REMARK   71  A    between atoms: _188  and  _189
REMARK   72  A    between atoms: _188  and  _191
REMARK   73  A    between atoms: _191  and  _192
REMARK   74  A    between atoms: _195  and  _197
REMARK   75  A    between atoms: _197  and  _198
REMARK   76  A    between atoms: _201  and  _203
REMARK   77  A    between atoms: _203  and  _204
REMARK   78  A    between atoms: _203  and  _206
REMARK   79  A    between atoms: _206  and  _207
REMARK   80  A    between atoms: _207  and  _208
REMARK   81  A    between atoms: _211  and  _213
REMARK   82  A    between atoms: _213  and  _214
REMARK   83  A    between atoms: _213  and  _216
REMARK   84  A    between atoms: _216  and  _217
REMARK   85  A    between atoms: _217  and  _218
REMARK   86  A    between atoms: _218  and  _220
REMARK   87  A    between atoms: _220  and  ZN_432
REMARK   88  A    between atoms: _221  and  _223
REMARK   89  A    between atoms: _223  and  _224
REMARK   90  A    between atoms: _223  and  _226
REMARK   91  A    between atoms: _226  and  _227
REMARK   92  A    between atoms: _233  and  _235
REMARK   93  A    between atoms: _235  and  _236
REMARK   94  A    between atoms: _238  and  _240
REMARK   95  A    between atoms: _240  and  _241
REMARK   96  A    between atoms: _240  and  _243
REMARK   97  A    between atoms: _243  and  _244
REMARK   98  A    between atoms: _247  and  _249
REMARK   99  A    between atoms: _249  and  _250
REMARK  100  A    between atoms: _249  and  _252
REMARK  101  A    between atoms: _252  and  _253
REMARK  102  A    between atoms: _256  and  _258
REMARK  103  A    between atoms: _258  and  _259
REMARK  104  A    between atoms: _258  and  _261
REMARK  105  A    between atoms: _261  and  _262
REMARK  106  A    between atoms: _267  and  _269
REMARK  107  A    between atoms: _269  and  _270
REMARK  108  A    between atoms: _269  and  _272
REMARK  109  A    between atoms: _272  and  _273
REMARK  110  A    between atoms: _273  and  _274
REMARK  111  A    between atoms: _274  and  ZN_433
REMARK  112  A    between atoms: _276  and  _278
REMARK  113  A    between atoms: _278  and  _279
REMARK  114  A    between atoms: _278  and  _281
REMARK  115  A    between atoms: _281  and  _282
REMARK  116  A    between atoms: _284  and  _286
REMARK  117  A    between atoms: _286  and  _287
REMARK  118  A    between atoms: _286  and  _289
REMARK  119  A    between atoms: _289  and  _290
REMARK  120  A    between atoms: _292  and  _294
REMARK  121  A    between atoms: _294  and  _295
REMARK  122  A    between atoms: _297  and  _299
REMARK  123  A    between atoms: _299  and  _300
REMARK  124  A    between atoms: _299  and  _302
REMARK  125  A    between atoms: _302  and  _303
REMARK  126  A    between atoms: _305  and  _307
REMARK  127  A    between atoms: _307  and  _308
REMARK  128  A    between atoms: _307  and  _310
REMARK  129  A    between atoms: _310  and  _311
REMARK  130  A    between atoms: _314  and  _316
REMARK  131  A    between atoms: _316  and  _317
REMARK  132  A    between atoms: _316  and  _319
REMARK  133  A    between atoms: _319  and  _320
REMARK  134  A    between atoms: _320  and  _321
REMARK  135  A    between atoms: _324  and  _326
REMARK  136  A    between atoms: _326  and  _327
REMARK  137  A    between atoms: _326  and  _329
REMARK  138  A    between atoms: _329  and  _330
REMARK  139  A    between atoms: _330  and  _331
REMARK  140  A    between atoms: _331  and  _332
REMARK  141  A    between atoms: _341  and  _343
REMARK  142  A    between atoms: _343  and  _344
REMARK  143  A    between atoms: _343  and  _346
REMARK  144  A    between atoms: _346  and  _347
REMARK  145  A    between atoms: _347  and  _348
REMARK  146  A    between atoms: _348  and  _349
REMARK  147  A    between atoms: _358  and  _360
REMARK  148  A    between atoms: _360  and  _361
REMARK  149  A    between atoms: _360  and  _363
REMARK  150  A    between atoms: _363  and  _364
REMARK  151  A    between atoms: _366  and  _368
REMARK  152  A    between atoms: _368  and  _369
REMARK  153  A    between atoms: _368  and  _371
REMARK  154  A    between atoms: _371  and  _372
REMARK  155  A    between atoms: _377  and  _378
REMARK  156  A    between atoms: _380  and  _382
REMARK  157  A    between atoms: _382  and  _383
REMARK  158  A    between atoms: _382  and  _385
REMARK  159  A    between atoms: _385  and  _386
REMARK  160  A    between atoms: _390  and  ZN_432
REMARK  161  A    between atoms: _391  and  _393
REMARK  162  A    between atoms: _393  and  _394
REMARK  163  A    between atoms: _393  and  _396
REMARK  164  A    between atoms: _396  and  _397
REMARK  165  A    between atoms: _402  and  _403
REMARK  166  A    between atoms: _405  and  _407
REMARK  167  A    between atoms: _407  and  _408
REMARK  168  A    between atoms: _407  and  _410
REMARK  169  A    between atoms: _410  and  _411
REMARK  170  A    between atoms: _411  and  _412
REMARK  171  A    between atoms: _412  and  _413
REMARK  172  A    between atoms: _413  and  _414
REMARK  173  A    between atoms: _418  and  _420
REMARK  174  A    between atoms: _420  and  _421
REMARK  175  A    between atoms: _420  and  _423
REMARK  176  A    between atoms: _423  and  _424
REMARK  177  A    between atoms: _429  and  _430
REMARK                            x       y       z     vdW  Elec       q    Type
REMARK                         _______ _______ _______ _____ _____    ______ ____
ROOT
ATOM      1  O   HOH     1      13.810  37.378  10.393  0.00  0.00    +0.000 OA
ENDROOT
TORSDOF 0
REMARK  Name = ../refined-set-2016/3ff3/3ff3_pocket.pdb
REMARK  177 active torsions:
REMARK  status: ('A' for Active; 'I' for Inactive)
REMARK    1  A    between atoms: _1  and  _3
REMARK    2  A    between atoms: _3  and  _4
REMARK    3  A    between atoms: _3  and  _6
REMARK    4  A    between atoms: _6  and  _7
REMARK    5  A    between atoms: _13  and  _15
REMARK    6  A    between atoms: _15  and  _16
REMARK    7  A    between atoms: _15  and  _18
REMARK    8  A    between atoms: _18  and  _19
REMARK    9  A    between atoms: _25  and  _27
REMARK   10  A    between atoms: _27  and  _28
REMARK   11  A    between atoms: _27  and  _30
REMARK   12  A    between atoms: _30  and  _31
REMARK   13  A    between atoms: _31  and  _32
REMARK   14  A    between atoms: _32  and  _33
REMARK   15  A    between atoms: _42  and  _44
REMARK   16  A    between atoms: _44  and  _45
REMARK   17  A    between atoms: _47  and  _49
REMARK   18  A    between atoms: _49  and  _50
REMARK   19  A    between atoms: _49  and  _52
REMARK   20  A    between atoms: _52  and  _53
REMARK   21  A    between atoms: _53  and  _54
REMARK   22  A    between atoms: _59  and  _61
REMARK   23  A    between atoms: _61  and  _62
REMARK   24  A    between atoms: _61  and  _64
REMARK   25  A    between atoms: _64  and  _65
REMARK   26  A    between atoms: _65  and  _66
REMARK   27  A    between atoms: _66  and  _67
REMARK   28  A    between atoms: _76  and  _78
REMARK   29  A    between atoms: _78  and  _79
REMARK   30  A    between atoms: _81  and  _83
REMARK   31  A    between atoms: _83  and  _84
REMARK   32  A    between atoms: _83  and  _86
REMARK   33  A    between atoms: _86  and  _87
REMARK   34  A    between atoms: _92  and  _94
REMARK   35  A    between atoms: _94  and  _95
REMARK   36  A    between atoms: _94  and  _97
REMARK   37  A    between atoms: _100  and  _102
REMARK   38  A    between atoms: _102  and  _103
REMARK   39  A    between atoms: _102  and  _105
REMARK   40  A    between atoms: _105  and  _106
REMARK   41  A    between atoms: _109  and  _111
REMARK   42  A    between atoms: _111  and  _112
REMARK   43  A    between atoms: _111  and  _114
REMARK   44  A    between atoms: _114  and  _115
REMARK   45  A    between atoms: _120  and  _122
REMARK   46  A    between atoms: _122  and  _123
REMARK   47  A    between atoms: _122  and  _125
REMARK   48  A    between atoms: _125  and  _126
REMARK   49  A    between atoms: _129  and  _131
REMARK   50  A    between atoms: _131  and  _132
REMARK   51  A    between atoms: _131  and  _134
REMARK   52  A    between atoms: _134  and  _135
REMARK   53  A    between atoms: _140  and  _142
REMARK   54  A    between atoms: _142  and  _143
REMARK   55  A    between atoms: _145  and  _147
REMARK   56  A    between atoms: _147  and  _148
REMARK   57  A    between atoms: _150  and  _152
REMARK   58  A    between atoms: _152  and  _153
REMARK   59  A    between atoms: _152  and  _155
REMARK   60  A    between atoms: _155  and  _156
REMARK   61  A    between atoms: _160  and  ZN_433
REMARK   62  A    between atoms: _161  and  _163
REMARK   63  A    between atoms: _163  and  _164
REMARK   64  A    between atoms: _163  and  _166
REMARK   65  A    between atoms: _166  and  _167
REMARK   66  A    between atoms: _170  and  _172
REMARK   67  A    between atoms: _172  and  _173
REMARK   68  A    between atoms: _172  and  _175
REMARK   69  A    between atoms: _175  and  _176
REMARK   70  A    between atoms: _186  and  _188
REMARK   71  A    between atoms: _188  and  _189
REMARK   72  A    between atoms: _188  and  _191
REMARK   73  A    between atoms: _191  and  _192
REMARK   74  A    between atoms: _195  and  _197
REMARK   75  A    between atoms: _197  and  _198
REMARK   76  A    between atoms: _201  and  _203
REMARK   77  A    between atoms: _203  and  _204
REMARK   78  A    between atoms: _203  and  _206
REMARK   79  A    between atoms: _206  and  _207
REMARK   80  A    between atoms: _207  and  _208
REMARK   81  A    between atoms: _211  and  _213
REMARK   82  A    between atoms: _213  and  _214
REMARK   83  A    between atoms: _213  and  _216
REMARK   84  A    between atoms: _216  and  _217
REMARK   85  A    between atoms: _217  and  _218
REMARK   86  A    between atoms: _218  and  _220
REMARK   87  A    between atoms: _220  and  ZN_432
REMARK   88  A    between atoms: _221  and  _223
REMARK   89  A    between atoms: _223  and  _224
REMARK   90  A    between atoms: _223  and  _226
REMARK   91  A    between atoms: _226  and  _227
REMARK   92  A    between atoms: _233  and  _235
REMARK   93  A    between atoms: _235  and  _236
REMARK   94  A    between atoms: _238  and  _240
REMARK   95  A    between atoms: _240  and  _241
REMARK   96  A    between atoms: _240  and  _243
REMARK   97  A    between atoms: _243  and  _244
REMARK   98  A    between atoms: _247  and  _249
REMARK   99  A    between atoms: _249  and  _250
REMARK  100  A    between atoms: _249  and  _252
REMARK  101  A    between atoms: _252  and  _253
REMARK  102  A    between atoms: _256  and  _258
REMARK  103  A    between atoms: _258  and  _259
REMARK  104  A    between atoms: _258  and  _261
REMARK  105  A    between atoms: _261  and  _262
REMARK  106  A    between atoms: _267  and  _269
REMARK  107  A    between atoms: _269  and  _270
REMARK  108  A    between atoms: _269  and  _272
REMARK  109  A    between atoms: _272  and  _273
REMARK  110  A    between atoms: _273  and  _274
REMARK  111  A    between atoms: _274  and  ZN_433
REMARK  112  A    between atoms: _276  and  _278
REMARK  113  A    between atoms: _278  and  _279
REMARK  114  A    between atoms: _278  and  _281
REMARK  115  A    between atoms: _281  and  _282
REMARK  116  A    between atoms: _284  and  _286
REMARK  117  A    between atoms: _286  and  _287
REMARK  118  A    between atoms: _286  and  _289
REMARK  119  A    between atoms: _289  and  _290
REMARK  120  A    between atoms: _292  and  _294
REMARK  121  A    between atoms: _294  and  _295
REMARK  122  A    between atoms: _297  and  _299
REMARK  123  A    between atoms: _299  and  _300
REMARK  124  A    between atoms: _299  and  _302
REMARK  125  A    between atoms: _302  and  _303
REMARK  126  A    between atoms: _305  and  _307
REMARK  127  A    between atoms: _307  and  _308
REMARK  128  A    between atoms: _307  and  _310
REMARK  129  A    between atoms: _310  and  _311
REMARK  130  A    between atoms: _314  and  _316
REMARK  131  A    between atoms: _316  and  _317
REMARK  132  A    between atoms: _316  and  _319
REMARK  133  A    between atoms: _319  and  _320
REMARK  134  A    between atoms: _320  and  _321
REMARK  135  A    between atoms: _324  and  _326
REMARK  136  A    between atoms: _326  and  _327
REMARK  137  A    between atoms: _326  and  _329
REMARK  138  A    between atoms: _329  and  _330
REMARK  139  A    between atoms: _330  and  _331
REMARK  140  A    between atoms: _331  and  _332
REMARK  141  A    between atoms: _341  and  _343
REMARK  142  A    between atoms: _343  and  _344
REMARK  143  A    between atoms: _343  and  _346
REMARK  144  A    between atoms: _346  and  _347
REMARK  145  A    between atoms: _347  and  _348
REMARK  146  A    between atoms: _348  and  _349
REMARK  147  A    between atoms: _358  and  _360
REMARK  148  A    between atoms: _360  and  _361
REMARK  149  A    between atoms: _360  and  _363
REMARK  150  A    between atoms: _363  and  _364
REMARK  151  A    between atoms: _366  and  _368
REMARK  152  A    between atoms: _368  and  _369
REMARK  153  A    between atoms: _368  and  _371
REMARK  154  A    between atoms: _371  and  _372
REMARK  155  A    between atoms: _377  and  _378
REMARK  156  A    between atoms: _380  and  _382
REMARK  157  A    between atoms: _382  and  _383
REMARK  158  A    between atoms: _382  and  _385
REMARK  159  A    between atoms: _385  and  _386
REMARK  160  A    between atoms: _390  and  ZN_432
REMARK  161  A    between atoms: _391  and  _393
REMARK  162  A    between atoms: _393  and  _394
REMARK  163  A    between atoms: _393  and  _396
REMARK  164  A    between atoms: _396  and  _397
REMARK  165  A    between atoms: _402  and  _403
REMARK  166  A    between atoms: _405  and  _407
REMARK  167  A    between atoms: _407  and  _408
REMARK  168  A    between atoms: _407  and  _410
REMARK  169  A    between atoms: _410  and  _411
REMARK  170  A    between atoms: _411  and  _412
REMARK  171  A    between atoms: _412  and  _413
REMARK  172  A    between atoms: _413  and  _414
REMARK  173  A    between atoms: _418  and  _420
REMARK  174  A    between atoms: _420  and  _421
REMARK  175  A    between atoms: _420  and  _423
REMARK  176  A    between atoms: _423  and  _424
REMARK  177  A    between atoms: _429  and  _430
REMARK                            x       y       z     vdW  Elec       q    Type
REMARK                         _______ _______ _______ _____ _____    ______ ____
ROOT
ATOM      1  O   HOH     1      13.494  37.650  13.643  0.00  0.00    +0.000 OA
ENDROOT
TORSDOF 0
REMARK  Name = ../refined-set-2016/3ff3/3ff3_pocket.pdb
REMARK  177 active torsions:
REMARK  status: ('A' for Active; 'I' for Inactive)
REMARK    1  A    between atoms: _1  and  _3
REMARK    2  A    between atoms: _3  and  _4
REMARK    3  A    between atoms: _3  and  _6
REMARK    4  A    between atoms: _6  and  _7
REMARK    5  A    between atoms: _13  and  _15
REMARK    6  A    between atoms: _15  and  _16
REMARK    7  A    between atoms: _15  and  _18
REMARK    8  A    between atoms: _18  and  _19
REMARK    9  A    between atoms: _25  and  _27
REMARK   10  A    between atoms: _27  and  _28
REMARK   11  A    between atoms: _27  and  _30
REMARK   12  A    between atoms: _30  and  _31
REMARK   13  A    between atoms: _31  and  _32
REMARK   14  A    between atoms: _32  and  _33
REMARK   15  A    between atoms: _42  and  _44
REMARK   16  A    between atoms: _44  and  _45
REMARK   17  A    between atoms: _47  and  _49
REMARK   18  A    between atoms: _49  and  _50
REMARK   19  A    between atoms: _49  and  _52
REMARK   20  A    between atoms: _52  and  _53
REMARK   21  A    between atoms: _53  and  _54
REMARK   22  A    between atoms: _59  and  _61
REMARK   23  A    between atoms: _61  and  _62
REMARK   24  A    between atoms: _61  and  _64
REMARK   25  A    between atoms: _64  and  _65
REMARK   26  A    between atoms: _65  and  _66
REMARK   27  A    between atoms: _66  and  _67
REMARK   28  A    between atoms: _76  and  _78
REMARK   29  A    between atoms: _78  and  _79
REMARK   30  A    between atoms: _81  and  _83
REMARK   31  A    between atoms: _83  and  _84
REMARK   32  A    between atoms: _83  and  _86
REMARK   33  A    between atoms: _86  and  _87
REMARK   34  A    between atoms: _92  and  _94
REMARK   35  A    between atoms: _94  and  _95
REMARK   36  A    between atoms: _94  and  _97
REMARK   37  A    between atoms: _100  and  _102
REMARK   38  A    between atoms: _102  and  _103
REMARK   39  A    between atoms: _102  and  _105
REMARK   40  A    between atoms: _105  and  _106
REMARK   41  A    between atoms: _109  and  _111
REMARK   42  A    between atoms: _111  and  _112
REMARK   43  A    between atoms: _111  and  _114
REMARK   44  A    between atoms: _114  and  _115
REMARK   45  A    between atoms: _120  and  _122
REMARK   46  A    between atoms: _122  and  _123
REMARK   47  A    between atoms: _122  and  _125
REMARK   48  A    between atoms: _125  and  _126
REMARK   49  A    between atoms: _129  and  _131
REMARK   50  A    between atoms: _131  and  _132
REMARK   51  A    between atoms: _131  and  _134
REMARK   52  A    between atoms: _134  and  _135
REMARK   53  A    between atoms: _140  and  _142
REMARK   54  A    between atoms: _142  and  _143
REMARK   55  A    between atoms: _145  and  _147
REMARK   56  A    between atoms: _147  and  _148
REMARK   57  A    between atoms: _150  and  _152
REMARK   58  A    between atoms: _152  and  _153
REMARK   59  A    between atoms: _152  and  _155
REMARK   60  A    between atoms: _155  and  _156
REMARK   61  A    between atoms: _160  and  ZN_433
REMARK   62  A    between atoms: _161  and  _163
REMARK   63  A    between atoms: _163  and  _164
REMARK   64  A    between atoms: _163  and  _166
REMARK   65  A    between atoms: _166  and  _167
REMARK   66  A    between atoms: _170  and  _172
REMARK   67  A    between atoms: _172  and  _173
REMARK   68  A    between atoms: _172  and  _175
REMARK   69  A    between atoms: _175  and  _176
REMARK   70  A    between atoms: _186  and  _188
REMARK   71  A    between atoms: _188  and  _189
REMARK   72  A    between atoms: _188  and  _191
REMARK   73  A    between atoms: _191  and  _192
REMARK   74  A    between atoms: _195  and  _197
REMARK   75  A    between atoms: _197  and  _198
REMARK   76  A    between atoms: _201  and  _203
REMARK   77  A    between atoms: _203  and  _204
REMARK   78  A    between atoms: _203  and  _206
REMARK   79  A    between atoms: _206  and  _207
REMARK   80  A    between atoms: _207  and  _208
REMARK   81  A    between atoms: _211  and  _213
REMARK   82  A    between atoms: _213  and  _214
REMARK   83  A    between atoms: _213  and  _216
REMARK   84  A    between atoms: _216  and  _217
REMARK   85  A    between atoms: _217  and  _218
REMARK   86  A    between atoms: _218  and  _220
REMARK   87  A    between atoms: _220  and  ZN_432
REMARK   88  A    between atoms: _221  and  _223
REMARK   89  A    between atoms: _223  and  _224
REMARK   90  A    between atoms: _223  and  _226
REMARK   91  A    between atoms: _226  and  _227
REMARK   92  A    between atoms: _233  and  _235
REMARK   93  A    between atoms: _235  and  _236
REMARK   94  A    between atoms: _238  and  _240
REMARK   95  A    between atoms: _240  and  _241
REMARK   96  A    between atoms: _240  and  _243
REMARK   97  A    between atoms: _243  and  _244
REMARK   98  A    between atoms: _247  and  _249
REMARK   99  A    between atoms: _249  and  _250
REMARK  100  A    between atoms: _249  and  _252
REMARK  101  A    between atoms: _252  and  _253
REMARK  102  A    between atoms: _256  and  _258
REMARK  103  A    between atoms: _258  and  _259
REMARK  104  A    between atoms: _258  and  _261
REMARK  105  A    between atoms: _261  and  _262
REMARK  106  A    between atoms: _267  and  _269
REMARK  107  A    between atoms: _269  and  _270
REMARK  108  A    between atoms: _269  and  _272
REMARK  109  A    between atoms: _272  and  _273
REMARK  110  A    between atoms: _273  and  _274
REMARK  111  A    between atoms: _274  and  ZN_433
REMARK  112  A    between atoms: _276  and  _278
REMARK  113  A    between atoms: _278  and  _279
REMARK  114  A    between atoms: _278  and  _281
REMARK  115  A    between atoms: _281  and  _282
REMARK  116  A    between atoms: _284  and  _286
REMARK  117  A    between atoms: _286  and  _287
REMARK  118  A    between atoms: _286  and  _289
REMARK  119  A    between atoms: _289  and  _290
REMARK  120  A    between atoms: _292  and  _294
REMARK  121  A    between atoms: _294  and  _295
REMARK  122  A    between atoms: _297  and  _299
REMARK  123  A    between atoms: _299  and  _300
REMARK  124  A    between atoms: _299  and  _302
REMARK  125  A    between atoms: _302  and  _303
REMARK  126  A    between atoms: _305  and  _307
REMARK  127  A    between atoms: _307  and  _308
REMARK  128  A    between atoms: _307  and  _310
REMARK  129  A    between atoms: _310  and  _311
REMARK  130  A    between atoms: _314  and  _316
REMARK  131  A    between atoms: _316  and  _317
REMARK  132  A    between atoms: _316  and  _319
REMARK  133  A    between atoms: _319  and  _320
REMARK  134  A    between atoms: _320  and  _321
REMARK  135  A    between atoms: _324  and  _326
REMARK  136  A    between atoms: _326  and  _327
REMARK  137  A    between atoms: _326  and  _329
REMARK  138  A    between atoms: _329  and  _330
REMARK  139  A    between atoms: _330  and  _331
REMARK  140  A    between atoms: _331  and  _332
REMARK  141  A    between atoms: _341  and  _343
REMARK  142  A    between atoms: _343  and  _344
REMARK  143  A    between atoms: _343  and  _346
REMARK  144  A    between atoms: _346  and  _347
REMARK  145  A    between atoms: _347  and  _348
REMARK  146  A    between atoms: _348  and  _349
REMARK  147  A    between atoms: _358  and  _360
REMARK  148  A    between atoms: _360  and  _361
REMARK  149  A    between atoms: _360  and  _363
REMARK  150  A    between atoms: _363  and  _364
REMARK  151  A    between atoms: _366  and  _368
REMARK  152  A    between atoms: _368  and  _369
REMARK  153  A    between atoms: _368  and  _371
REMARK  154  A    between atoms: _371  and  _372
REMARK  155  A    between atoms: _377  and  _378
REMARK  156  A    between atoms: _380  and  _382
REMARK  157  A    between atoms: _382  and  _383
REMARK  158  A    between atoms: _382  and  _385
REMARK  159  A    between atoms: _385  and  _386
REMARK  160  A    between atoms: _390  and  ZN_432
REMARK  161  A    between atoms: _391  and  _393
REMARK  162  A    between atoms: _393  and  _394
REMARK  163  A    between atoms: _393  and  _396
REMARK  164  A    between atoms: _396  and  _397
REMARK  165  A    between atoms: _402  and  _403
REMARK  166  A    between atoms: _405  and  _407
REMARK  167  A    between atoms: _407  and  _408
REMARK  168  A    between atoms: _407  and  _410
REMARK  169  A    between atoms: _410  and  _411
REMARK  170  A    between atoms: _411  and  _412
REMARK  171  A    between atoms: _412  and  _413
REMARK  172  A    between atoms: _413  and  _414
REMARK  173  A    between atoms: _418  and  _420
REMARK  174  A    between atoms: _420  and  _421
REMARK  175  A    between atoms: _420  and  _423
REMARK  176  A    between atoms: _423  and  _424
REMARK  177  A    between atoms: _429  and  _430
REMARK                            x       y       z     vdW  Elec       q    Type
REMARK                         _______ _______ _______ _____ _____    ______ ____
ROOT
ATOM      1  O   HOH     1      17.493  39.864  21.296  0.00  0.00    +0.000 OA
ENDROOT
TORSDOF 0
REMARK  Name = ../refined-set-2016/3ff3/3ff3_pocket.pdb
REMARK  177 active torsions:
REMARK  status: ('A' for Active; 'I' for Inactive)
REMARK    1  A    between atoms: _1  and  _3
REMARK    2  A    between atoms: _3  and  _4
REMARK    3  A    between atoms: _3  and  _6
REMARK    4  A    between atoms: _6  and  _7
REMARK    5  A    between atoms: _13  and  _15
REMARK    6  A    between atoms: _15  and  _16
REMARK    7  A    between atoms: _15  and  _18
REMARK    8  A    between atoms: _18  and  _19
REMARK    9  A    between atoms: _25  and  _27
REMARK   10  A    between atoms: _27  and  _28
REMARK   11  A    between atoms: _27  and  _30
REMARK   12  A    between atoms: _30  and  _31
REMARK   13  A    between atoms: _31  and  _32
REMARK   14  A    between atoms: _32  and  _33
REMARK   15  A    between atoms: _42  and  _44
REMARK   16  A    between atoms: _44  and  _45
REMARK   17  A    between atoms: _47  and  _49
REMARK   18  A    between atoms: _49  and  _50
REMARK   19  A    between atoms: _49  and  _52
REMARK   20  A    between atoms: _52  and  _53
REMARK   21  A    between atoms: _53  and  _54
REMARK   22  A    between atoms: _59  and  _61
REMARK   23  A    between atoms: _61  and  _62
REMARK   24  A    between atoms: _61  and  _64
REMARK   25  A    between atoms: _64  and  _65
REMARK   26  A    between atoms: _65  and  _66
REMARK   27  A    between atoms: _66  and  _67
REMARK   28  A    between atoms: _76  and  _78
REMARK   29  A    between atoms: _78  and  _79
REMARK   30  A    between atoms: _81  and  _83
REMARK   31  A    between atoms: _83  and  _84
REMARK   32  A    between atoms: _83  and  _86
REMARK   33  A    between atoms: _86  and  _87
REMARK   34  A    between atoms: _92  and  _94
REMARK   35  A    between atoms: _94  and  _95
REMARK   36  A    between atoms: _94  and  _97
REMARK   37  A    between atoms: _100  and  _102
REMARK   38  A    between atoms: _102  and  _103
REMARK   39  A    between atoms: _102  and  _105
REMARK   40  A    between atoms: _105  and  _106
REMARK   41  A    between atoms: _109  and  _111
REMARK   42  A    between atoms: _111  and  _112
REMARK   43  A    between atoms: _111  and  _114
REMARK   44  A    between atoms: _114  and  _115
REMARK   45  A    between atoms: _120  and  _122
REMARK   46  A    between atoms: _122  and  _123
REMARK   47  A    between atoms: _122  and  _125
REMARK   48  A    between atoms: _125  and  _126
REMARK   49  A    between atoms: _129  and  _131
REMARK   50  A    between atoms: _131  and  _132
REMARK   51  A    between atoms: _131  and  _134
REMARK   52  A    between atoms: _134  and  _135
REMARK   53  A    between atoms: _140  and  _142
REMARK   54  A    between atoms: _142  and  _143
REMARK   55  A    between atoms: _145  and  _147
REMARK   56  A    between atoms: _147  and  _148
REMARK   57  A    between atoms: _150  and  _152
REMARK   58  A    between atoms: _152  and  _153
REMARK   59  A    between atoms: _152  and  _155
REMARK   60  A    between atoms: _155  and  _156
REMARK   61  A    between atoms: _160  and  ZN_433
REMARK   62  A    between atoms: _161  and  _163
REMARK   63  A    between atoms: _163  and  _164
REMARK   64  A    between atoms: _163  and  _166
REMARK   65  A    between atoms: _166  and  _167
REMARK   66  A    between atoms: _170  and  _172
REMARK   67  A    between atoms: _172  and  _173
REMARK   68  A    between atoms: _172  and  _175
REMARK   69  A    between atoms: _175  and  _176
REMARK   70  A    between atoms: _186  and  _188
REMARK   71  A    between atoms: _188  and  _189
REMARK   72  A    between atoms: _188  and  _191
REMARK   73  A    between atoms: _191  and  _192
REMARK   74  A    between atoms: _195  and  _197
REMARK   75  A    between atoms: _197  and  _198
REMARK   76  A    between atoms: _201  and  _203
REMARK   77  A    between atoms: _203  and  _204
REMARK   78  A    between atoms: _203  and  _206
REMARK   79  A    between atoms: _206  and  _207
REMARK   80  A    between atoms: _207  and  _208
REMARK   81  A    between atoms: _211  and  _213
REMARK   82  A    between atoms: _213  and  _214
REMARK   83  A    between atoms: _213  and  _216
REMARK   84  A    between atoms: _216  and  _217
REMARK   85  A    between atoms: _217  and  _218
REMARK   86  A    between atoms: _218  and  _220
REMARK   87  A    between atoms: _220  and  ZN_432
REMARK   88  A    between atoms: _221  and  _223
REMARK   89  A    between atoms: _223  and  _224
REMARK   90  A    between atoms: _223  and  _226
REMARK   91  A    between atoms: _226  and  _227
REMARK   92  A    between atoms: _233  and  _235
REMARK   93  A    between atoms: _235  and  _236
REMARK   94  A    between atoms: _238  and  _240
REMARK   95  A    between atoms: _240  and  _241
REMARK   96  A    between atoms: _240  and  _243
REMARK   97  A    between atoms: _243  and  _244
REMARK   98  A    between atoms: _247  and  _249
REMARK   99  A    between atoms: _249  and  _250
REMARK  100  A    between atoms: _249  and  _252
REMARK  101  A    between atoms: _252  and  _253
REMARK  102  A    between atoms: _256  and  _258
REMARK  103  A    between atoms: _258  and  _259
REMARK  104  A    between atoms: _258  and  _261
REMARK  105  A    between atoms: _261  and  _262
REMARK  106  A    between atoms: _267  and  _269
REMARK  107  A    between atoms: _269  and  _270
REMARK  108  A    between atoms: _269  and  _272
REMARK  109  A    between atoms: _272  and  _273
REMARK  110  A    between atoms: _273  and  _274
REMARK  111  A    between atoms: _274  and  ZN_433
REMARK  112  A    between atoms: _276  and  _278
REMARK  113  A    between atoms: _278  and  _279
REMARK  114  A    between atoms: _278  and  _281
REMARK  115  A    between atoms: _281  and  _282
REMARK  116  A    between atoms: _284  and  _286
REMARK  117  A    between atoms: _286  and  _287
REMARK  118  A    between atoms: _286  and  _289
REMARK  119  A    between atoms: _289  and  _290
REMARK  120  A    between atoms: _292  and  _294
REMARK  121  A    between atoms: _294  and  _295
REMARK  122  A    between atoms: _297  and  _299
REMARK  123  A    between atoms: _299  and  _300
REMARK  124  A    between atoms: _299  and  _302
REMARK  125  A    between atoms: _302  and  _303
REMARK  126  A    between atoms: _305  and  _307
REMARK  127  A    between atoms: _307  and  _308
REMARK  128  A    between atoms: _307  and  _310
REMARK  129  A    between atoms: _310  and  _311
REMARK  130  A    between atoms: _314  and  _316
REMARK  131  A    between atoms: _316  and  _317
REMARK  132  A    between atoms: _316  and  _319
REMARK  133  A    between atoms: _319  and  _320
REMARK  134  A    between atoms: _320  and  _321
REMARK  135  A    between atoms: _324  and  _326
REMARK  136  A    between atoms: _326  and  _327
REMARK  137  A    between atoms: _326  and  _329
REMARK  138  A    between atoms: _329  and  _330
REMARK  139  A    between atoms: _330  and  _331
REMARK  140  A    between atoms: _331  and  _332
REMARK  141  A    between atoms: _341  and  _343
REMARK  142  A    between atoms: _343  and  _344
REMARK  143  A    between atoms: _343  and  _346
REMARK  144  A    between atoms: _346  and  _347
REMARK  145  A    between atoms: _347  and  _348
REMARK  146  A    between atoms: _348  and  _349
REMARK  147  A    between atoms: _358  and  _360
REMARK  148  A    between atoms: _360  and  _361
REMARK  149  A    between atoms: _360  and  _363
REMARK  150  A    between atoms: _363  and  _364
REMARK  151  A    between atoms: _366  and  _368
REMARK  152  A    between atoms: _368  and  _369
REMARK  153  A    between atoms: _368  and  _371
REMARK  154  A    between atoms: _371  and  _372
REMARK  155  A    between atoms: _377  and  _378
REMARK  156  A    between atoms: _380  and  _382
REMARK  157  A    between atoms: _382  and  _383
REMARK  158  A    between atoms: _382  and  _385
REMARK  159  A    between atoms: _385  and  _386
REMARK  160  A    between atoms: _390  and  ZN_432
REMARK  161  A    between atoms: _391  and  _393
REMARK  162  A    between atoms: _393  and  _394
REMARK  163  A    between atoms: _393  and  _396
REMARK  164  A    between atoms: _396  and  _397
REMARK  165  A    between atoms: _402  and  _403
REMARK  166  A    between atoms: _405  and  _407
REMARK  167  A    between atoms: _407  and  _408
REMARK  168  A    between atoms: _407  and  _410
REMARK  169  A    between atoms: _410  and  _411
REMARK  170  A    between atoms: _411  and  _412
REMARK  171  A    between atoms: _412  and  _413
REMARK  172  A    between atoms: _413  and  _414
REMARK  173  A    between atoms: _418  and  _420
REMARK  174  A    between atoms: _420  and  _421
REMARK  175  A    between atoms: _420  and  _423
REMARK  176  A    between atoms: _423  and  _424
REMARK  177  A    between atoms: _429  and  _430
REMARK                            x       y       z     vdW  Elec       q    Type
REMARK                         _______ _______ _______ _____ _____    ______ ____
ROOT
ATOM      1  O   HOH     1      11.717  41.272  12.084  0.00  0.00    +0.000 OA
ENDROOT
TORSDOF 0
REMARK  Name = ../refined-set-2016/3ff3/3ff3_pocket.pdb
REMARK  177 active torsions:
REMARK  status: ('A' for Active; 'I' for Inactive)
REMARK    1  A    between atoms: _1  and  _3
REMARK    2  A    between atoms: _3  and  _4
REMARK    3  A    between atoms: _3  and  _6
REMARK    4  A    between atoms: _6  and  _7
REMARK    5  A    between atoms: _13  and  _15
REMARK    6  A    between atoms: _15  and  _16
REMARK    7  A    between atoms: _15  and  _18
REMARK    8  A    between atoms: _18  and  _19
REMARK    9  A    between atoms: _25  and  _27
REMARK   10  A    between atoms: _27  and  _28
REMARK   11  A    between atoms: _27  and  _30
REMARK   12  A    between atoms: _30  and  _31
REMARK   13  A    between atoms: _31  and  _32
REMARK   14  A    between atoms: _32  and  _33
REMARK   15  A    between atoms: _42  and  _44
REMARK   16  A    between atoms: _44  and  _45
REMARK   17  A    between atoms: _47  and  _49
REMARK   18  A    between atoms: _49  and  _50
REMARK   19  A    between atoms: _49  and  _52
REMARK   20  A    between atoms: _52  and  _53
REMARK   21  A    between atoms: _53  and  _54
REMARK   22  A    between atoms: _59  and  _61
REMARK   23  A    between atoms: _61  and  _62
REMARK   24  A    between atoms: _61  and  _64
REMARK   25  A    between atoms: _64  and  _65
REMARK   26  A    between atoms: _65  and  _66
REMARK   27  A    between atoms: _66  and  _67
REMARK   28  A    between atoms: _76  and  _78
REMARK   29  A    between atoms: _78  and  _79
REMARK   30  A    between atoms: _81  and  _83
REMARK   31  A    between atoms: _83  and  _84
REMARK   32  A    between atoms: _83  and  _86
REMARK   33  A    between atoms: _86  and  _87
REMARK   34  A    between atoms: _92  and  _94
REMARK   35  A    between atoms: _94  and  _95
REMARK   36  A    between atoms: _94  and  _97
REMARK   37  A    between atoms: _100  and  _102
REMARK   38  A    between atoms: _102  and  _103
REMARK   39  A    between atoms: _102  and  _105
REMARK   40  A    between atoms: _105  and  _106
REMARK   41  A    between atoms: _109  and  _111
REMARK   42  A    between atoms: _111  and  _112
REMARK   43  A    between atoms: _111  and  _114
REMARK   44  A    between atoms: _114  and  _115
REMARK   45  A    between atoms: _120  and  _122
REMARK   46  A    between atoms: _122  and  _123
REMARK   47  A    between atoms: _122  and  _125
REMARK   48  A    between atoms: _125  and  _126
REMARK   49  A    between atoms: _129  and  _131
REMARK   50  A    between atoms: _131  and  _132
REMARK   51  A    between atoms: _131  and  _134
REMARK   52  A    between atoms: _134  and  _135
REMARK   53  A    between atoms: _140  and  _142
REMARK   54  A    between atoms: _142  and  _143
REMARK   55  A    between atoms: _145  and  _147
REMARK   56  A    between atoms: _147  and  _148
REMARK   57  A    between atoms: _150  and  _152
REMARK   58  A    between atoms: _152  and  _153
REMARK   59  A    between atoms: _152  and  _155
REMARK   60  A    between atoms: _155  and  _156
REMARK   61  A    between atoms: _160  and  ZN_433
REMARK   62  A    between atoms: _161  and  _163
REMARK   63  A    between atoms: _163  and  _164
REMARK   64  A    between atoms: _163  and  _166
REMARK   65  A    between atoms: _166  and  _167
REMARK   66  A    between atoms: _170  and  _172
REMARK   67  A    between atoms: _172  and  _173
REMARK   68  A    between atoms: _172  and  _175
REMARK   69  A    between atoms: _175  and  _176
REMARK   70  A    between atoms: _186  and  _188
REMARK   71  A    between atoms: _188  and  _189
REMARK   72  A    between atoms: _188  and  _191
REMARK   73  A    between atoms: _191  and  _192
REMARK   74  A    between atoms: _195  and  _197
REMARK   75  A    between atoms: _197  and  _198
REMARK   76  A    between atoms: _201  and  _203
REMARK   77  A    between atoms: _203  and  _204
REMARK   78  A    between atoms: _203  and  _206
REMARK   79  A    between atoms: _206  and  _207
REMARK   80  A    between atoms: _207  and  _208
REMARK   81  A    between atoms: _211  and  _213
REMARK   82  A    between atoms: _213  and  _214
REMARK   83  A    between atoms: _213  and  _216
REMARK   84  A    between atoms: _216  and  _217
REMARK   85  A    between atoms: _217  and  _218
REMARK   86  A    between atoms: _218  and  _220
REMARK   87  A    between atoms: _220  and  ZN_432
REMARK   88  A    between atoms: _221  and  _223
REMARK   89  A    between atoms: _223  and  _224
REMARK   90  A    between atoms: _223  and  _226
REMARK   91  A    between atoms: _226  and  _227
REMARK   92  A    between atoms: _233  and  _235
REMARK   93  A    between atoms: _235  and  _236
REMARK   94  A    between atoms: _238  and  _240
REMARK   95  A    between atoms: _240  and  _241
REMARK   96  A    between atoms: _240  and  _243
REMARK   97  A    between atoms: _243  and  _244
REMARK   98  A    between atoms: _247  and  _249
REMARK   99  A    between atoms: _249  and  _250
REMARK  100  A    between atoms: _249  and  _252
REMARK  101  A    between atoms: _252  and  _253
REMARK  102  A    between atoms: _256  and  _258
REMARK  103  A    between atoms: _258  and  _259
REMARK  104  A    between atoms: _258  and  _261
REMARK  105  A    between atoms: _261  and  _262
REMARK  106  A    between atoms: _267  and  _269
REMARK  107  A    between atoms: _269  and  _270
REMARK  108  A    between atoms: _269  and  _272
REMARK  109  A    between atoms: _272  and  _273
REMARK  110  A    between atoms: _273  and  _274
REMARK  111  A    between atoms: _274  and  ZN_433
REMARK  112  A    between atoms: _276  and  _278
REMARK  113  A    between atoms: _278  and  _279
REMARK  114  A    between atoms: _278  and  _281
REMARK  115  A    between atoms: _281  and  _282
REMARK  116  A    between atoms: _284  and  _286
REMARK  117  A    between atoms: _286  and  _287
REMARK  118  A    between atoms: _286  and  _289
REMARK  119  A    between atoms: _289  and  _290
REMARK  120  A    between atoms: _292  and  _294
REMARK  121  A    between atoms: _294  and  _295
REMARK  122  A    between atoms: _297  and  _299
REMARK  123  A    between atoms: _299  and  _300
REMARK  124  A    between atoms: _299  and  _302
REMARK  125  A    between atoms: _302  and  _303
REMARK  126  A    between atoms: _305  and  _307
REMARK  127  A    between atoms: _307  and  _308
REMARK  128  A    between atoms: _307  and  _310
REMARK  129  A    between atoms: _310  and  _311
REMARK  130  A    between atoms: _314  and  _316
REMARK  131  A    between atoms: _316  and  _317
REMARK  132  A    between atoms: _316  and  _319
REMARK  133  A    between atoms: _319  and  _320
REMARK  134  A    between atoms: _320  and  _321
REMARK  135  A    between atoms: _324  and  _326
REMARK  136  A    between atoms: _326  and  _327
REMARK  137  A    between atoms: _326  and  _329
REMARK  138  A    between atoms: _329  and  _330
REMARK  139  A    between atoms: _330  and  _331
REMARK  140  A    between atoms: _331  and  _332
REMARK  141  A    between atoms: _341  and  _343
REMARK  142  A    between atoms: _343  and  _344
REMARK  143  A    between atoms: _343  and  _346
REMARK  144  A    between atoms: _346  and  _347
REMARK  145  A    between atoms: _347  and  _348
REMARK  146  A    between atoms: _348  and  _349
REMARK  147  A    between atoms: _358  and  _360
REMARK  148  A    between atoms: _360  and  _361
REMARK  149  A    between atoms: _360  and  _363
REMARK  150  A    between atoms: _363  and  _364
REMARK  151  A    between atoms: _366  and  _368
REMARK  152  A    between atoms: _368  and  _369
REMARK  153  A    between atoms: _368  and  _371
REMARK  154  A    between atoms: _371  and  _372
REMARK  155  A    between atoms: _377  and  _378
REMARK  156  A    between atoms: _380  and  _382
REMARK  157  A    between atoms: _382  and  _383
REMARK  158  A    between atoms: _382  and  _385
REMARK  159  A    between atoms: _385  and  _386
REMARK  160  A    between atoms: _390  and  ZN_432
REMARK  161  A    between atoms: _391  and  _393
REMARK  162  A    between atoms: _393  and  _394
REMARK  163  A    between atoms: _393  and  _396
REMARK  164  A    between atoms: _396  and  _397
REMARK  165  A    between atoms: _402  and  _403
REMARK  166  A    between atoms: _405  and  _407
REMARK  167  A    between atoms: _407  and  _408
REMARK  168  A    between atoms: _407  and  _410
REMARK  169  A    between atoms: _410  and  _411
REMARK  170  A    between atoms: _411  and  _412
REMARK  171  A    between atoms: _412  and  _413
REMARK  172  A    between atoms: _413  and  _414
REMARK  173  A    between atoms: _418  and  _420
REMARK  174  A    between atoms: _420  and  _421
REMARK  175  A    between atoms: _420  and  _423
REMARK  176  A    between atoms: _423  and  _424
REMARK  177  A    between atoms: _429  and  _430
REMARK                            x       y       z     vdW  Elec       q    Type
REMARK                         _______ _______ _______ _____ _____    ______ ____
ROOT
ATOM      1  O   HOH     1      24.897  37.591  18.212  0.00  0.00    +0.000 OA
ENDROOT
TORSDOF 0
REMARK  Name = ../refined-set-2016/3ff3/3ff3_pocket.pdb
REMARK  177 active torsions:
REMARK  status: ('A' for Active; 'I' for Inactive)
REMARK    1  A    between atoms: _1  and  _3
REMARK    2  A    between atoms: _3  and  _4
REMARK    3  A    between atoms: _3  and  _6
REMARK    4  A    between atoms: _6  and  _7
REMARK    5  A    between atoms: _13  and  _15
REMARK    6  A    between atoms: _15  and  _16
REMARK    7  A    between atoms: _15  and  _18
REMARK    8  A    between atoms: _18  and  _19
REMARK    9  A    between atoms: _25  and  _27
REMARK   10  A    between atoms: _27  and  _28
REMARK   11  A    between atoms: _27  and  _30
REMARK   12  A    between atoms: _30  and  _31
REMARK   13  A    between atoms: _31  and  _32
REMARK   14  A    between atoms: _32  and  _33
REMARK   15  A    between atoms: _42  and  _44
REMARK   16  A    between atoms: _44  and  _45
REMARK   17  A    between atoms: _47  and  _49
REMARK   18  A    between atoms: _49  and  _50
REMARK   19  A    between atoms: _49  and  _52
REMARK   20  A    between atoms: _52  and  _53
REMARK   21  A    between atoms: _53  and  _54
REMARK   22  A    between atoms: _59  and  _61
REMARK   23  A    between atoms: _61  and  _62
REMARK   24  A    between atoms: _61  and  _64
REMARK   25  A    between atoms: _64  and  _65
REMARK   26  A    between atoms: _65  and  _66
REMARK   27  A    between atoms: _66  and  _67
REMARK   28  A    between atoms: _76  and  _78
REMARK   29  A    between atoms: _78  and  _79
REMARK   30  A    between atoms: _81  and  _83
REMARK   31  A    between atoms: _83  and  _84
REMARK   32  A    between atoms: _83  and  _86
REMARK   33  A    between atoms: _86  and  _87
REMARK   34  A    between atoms: _92  and  _94
REMARK   35  A    between atoms: _94  and  _95
REMARK   36  A    between atoms: _94  and  _97
REMARK   37  A    between atoms: _100  and  _102
REMARK   38  A    between atoms: _102  and  _103
REMARK   39  A    between atoms: _102  and  _105
REMARK   40  A    between atoms: _105  and  _106
REMARK   41  A    between atoms: _109  and  _111
REMARK   42  A    between atoms: _111  and  _112
REMARK   43  A    between atoms: _111  and  _114
REMARK   44  A    between atoms: _114  and  _115
REMARK   45  A    between atoms: _120  and  _122
REMARK   46  A    between atoms: _122  and  _123
REMARK   47  A    between atoms: _122  and  _125
REMARK   48  A    between atoms: _125  and  _126
REMARK   49  A    between atoms: _129  and  _131
REMARK   50  A    between atoms: _131  and  _132
REMARK   51  A    between atoms: _131  and  _134
REMARK   52  A    between atoms: _134  and  _135
REMARK   53  A    between atoms: _140  and  _142
REMARK   54  A    between atoms: _142  and  _143
REMARK   55  A    between atoms: _145  and  _147
REMARK   56  A    between atoms: _147  and  _148
REMARK   57  A    between atoms: _150  and  _152
REMARK   58  A    between atoms: _152  and  _153
REMARK   59  A    between atoms: _152  and  _155
REMARK   60  A    between atoms: _155  and  _156
REMARK   61  A    between atoms: _160  and  ZN_433
REMARK   62  A    between atoms: _161  and  _163
REMARK   63  A    between atoms: _163  and  _164
REMARK   64  A    between atoms: _163  and  _166
REMARK   65  A    between atoms: _166  and  _167
REMARK   66  A    between atoms: _170  and  _172
REMARK   67  A    between atoms: _172  and  _173
REMARK   68  A    between atoms: _172  and  _175
REMARK   69  A    between atoms: _175  and  _176
REMARK   70  A    between atoms: _186  and  _188
REMARK   71  A    between atoms: _188  and  _189
REMARK   72  A    between atoms: _188  and  _191
REMARK   73  A    between atoms: _191  and  _192
REMARK   74  A    between atoms: _195  and  _197
REMARK   75  A    between atoms: _197  and  _198
REMARK   76  A    between atoms: _201  and  _203
REMARK   77  A    between atoms: _203  and  _204
REMARK   78  A    between atoms: _203  and  _206
REMARK   79  A    between atoms: _206  and  _207
REMARK   80  A    between atoms: _207  and  _208
REMARK   81  A    between atoms: _211  and  _213
REMARK   82  A    between atoms: _213  and  _214
REMARK   83  A    between atoms: _213  and  _216
REMARK   84  A    between atoms: _216  and  _217
REMARK   85  A    between atoms: _217  and  _218
REMARK   86  A    between atoms: _218  and  _220
REMARK   87  A    between atoms: _220  and  ZN_432
REMARK   88  A    between atoms: _221  and  _223
REMARK   89  A    between atoms: _223  and  _224
REMARK   90  A    between atoms: _223  and  _226
REMARK   91  A    between atoms: _226  and  _227
REMARK   92  A    between atoms: _233  and  _235
REMARK   93  A    between atoms: _235  and  _236
REMARK   94  A    between atoms: _238  and  _240
REMARK   95  A    between atoms: _240  and  _241
REMARK   96  A    between atoms: _240  and  _243
REMARK   97  A    between atoms: _243  and  _244
REMARK   98  A    between atoms: _247  and  _249
REMARK   99  A    between atoms: _249  and  _250
REMARK  100  A    between atoms: _249  and  _252
REMARK  101  A    between atoms: _252  and  _253
REMARK  102  A    between atoms: _256  and  _258
REMARK  103  A    between atoms: _258  and  _259
REMARK  104  A    between atoms: _258  and  _261
REMARK  105  A    between atoms: _261  and  _262
REMARK  106  A    between atoms: _267  and  _269
REMARK  107  A    between atoms: _269  and  _270
REMARK  108  A    between atoms: _269  and  _272
REMARK  109  A    between atoms: _272  and  _273
REMARK  110  A    between atoms: _273  and  _274
REMARK  111  A    between atoms: _274  and  ZN_433
REMARK  112  A    between atoms: _276  and  _278
REMARK  113  A    between atoms: _278  and  _279
REMARK  114  A    between atoms: _278  and  _281
REMARK  115  A    between atoms: _281  and  _282
REMARK  116  A    between atoms: _284  and  _286
REMARK  117  A    between atoms: _286  and  _287
REMARK  118  A    between atoms: _286  and  _289
REMARK  119  A    between atoms: _289  and  _290
REMARK  120  A    between atoms: _292  and  _294
REMARK  121  A    between atoms: _294  and  _295
REMARK  122  A    between atoms: _297  and  _299
REMARK  123  A    between atoms: _299  and  _300
REMARK  124  A    between atoms: _299  and  _302
REMARK  125  A    between atoms: _302  and  _303
REMARK  126  A    between atoms: _305  and  _307
REMARK  127  A    between atoms: _307  and  _308
REMARK  128  A    between atoms: _307  and  _310
REMARK  129  A    between atoms: _310  and  _311
REMARK  130  A    between atoms: _314  and  _316
REMARK  131  A    between atoms: _316  and  _317
REMARK  132  A    between atoms: _316  and  _319
REMARK  133  A    between atoms: _319  and  _320
REMARK  134  A    between atoms: _320  and  _321
REMARK  135  A    between atoms: _324  and  _326
REMARK  136  A    between atoms: _326  and  _327
REMARK  137  A    between atoms: _326  and  _329
REMARK  138  A    between atoms: _329  and  _330
REMARK  139  A    between atoms: _330  and  _331
REMARK  140  A    between atoms: _331  and  _332
REMARK  141  A    between atoms: _341  and  _343
REMARK  142  A    between atoms: _343  and  _344
REMARK  143  A    between atoms: _343  and  _346
REMARK  144  A    between atoms: _346  and  _347
REMARK  145  A    between atoms: _347  and  _348
REMARK  146  A    between atoms: _348  and  _349
REMARK  147  A    between atoms: _358  and  _360
REMARK  148  A    between atoms: _360  and  _361
REMARK  149  A    between atoms: _360  and  _363
REMARK  150  A    between atoms: _363  and  _364
REMARK  151  A    between atoms: _366  and  _368
REMARK  152  A    between atoms: _368  and  _369
REMARK  153  A    between atoms: _368  and  _371
REMARK  154  A    between atoms: _371  and  _372
REMARK  155  A    between atoms: _377  and  _378
REMARK  156  A    between atoms: _380  and  _382
REMARK  157  A    between atoms: _382  and  _383
REMARK  158  A    between atoms: _382  and  _385
REMARK  159  A    between atoms: _385  and  _386
REMARK  160  A    between atoms: _390  and  ZN_432
REMARK  161  A    between atoms: _391  and  _393
REMARK  162  A    between atoms: _393  and  _394
REMARK  163  A    between atoms: _393  and  _396
REMARK  164  A    between atoms: _396  and  _397
REMARK  165  A    between atoms: _402  and  _403
REMARK  166  A    between atoms: _405  and  _407
REMARK  167  A    between atoms: _407  and  _408
REMARK  168  A    between atoms: _407  and  _410
REMARK  169  A    between atoms: _410  and  _411
REMARK  170  A    between atoms: _411  and  _412
REMARK  171  A    between atoms: _412  and  _413
REMARK  172  A    between atoms: _413  and  _414
REMARK  173  A    between atoms: _418  and  _420
REMARK  174  A    between atoms: _420  and  _421
REMARK  175  A    between atoms: _420  and  _423
REMARK  176  A    between atoms: _423  and  _424
REMARK  177  A    between atoms: _429  and  _430
REMARK                            x       y       z     vdW  Elec       q    Type
REMARK                         _______ _______ _______ _____ _____    ______ ____
ROOT
ATOM      1  O   HOH     1      20.096  44.883  25.747  0.00  0.00    +0.000 OA
ENDROOT
TORSDOF 0
REMARK  Name = ../refined-set-2016/3ff3/3ff3_pocket.pdb
REMARK  177 active torsions:
REMARK  status: ('A' for Active; 'I' for Inactive)
REMARK    1  A    between atoms: _1  and  _3
REMARK    2  A    between atoms: _3  and  _4
REMARK    3  A    between atoms: _3  and  _6
REMARK    4  A    between atoms: _6  and  _7
REMARK    5  A    between atoms: _13  and  _15
REMARK    6  A    between atoms: _15  and  _16
REMARK    7  A    between atoms: _15  and  _18
REMARK    8  A    between atoms: _18  and  _19
REMARK    9  A    between atoms: _25  and  _27
REMARK   10  A    between atoms: _27  and  _28
REMARK   11  A    between atoms: _27  and  _30
REMARK   12  A    between atoms: _30  and  _31
REMARK   13  A    between atoms: _31  and  _32
REMARK   14  A    between atoms: _32  and  _33
REMARK   15  A    between atoms: _42  and  _44
REMARK   16  A    between atoms: _44  and  _45
REMARK   17  A    between atoms: _47  and  _49
REMARK   18  A    between atoms: _49  and  _50
REMARK   19  A    between atoms: _49  and  _52
REMARK   20  A    between atoms: _52  and  _53
REMARK   21  A    between atoms: _53  and  _54
REMARK   22  A    between atoms: _59  and  _61
REMARK   23  A    between atoms: _61  and  _62
REMARK   24  A    between atoms: _61  and  _64
REMARK   25  A    between atoms: _64  and  _65
REMARK   26  A    between atoms: _65  and  _66
REMARK   27  A    between atoms: _66  and  _67
REMARK   28  A    between atoms: _76  and  _78
REMARK   29  A    between atoms: _78  and  _79
REMARK   30  A    between atoms: _81  and  _83
REMARK   31  A    between atoms: _83  and  _84
REMARK   32  A    between atoms: _83  and  _86
REMARK   33  A    between atoms: _86  and  _87
REMARK   34  A    between atoms: _92  and  _94
REMARK   35  A    between atoms: _94  and  _95
REMARK   36  A    between atoms: _94  and  _97
REMARK   37  A    between atoms: _100  and  _102
REMARK   38  A    between atoms: _102  and  _103
REMARK   39  A    between atoms: _102  and  _105
REMARK   40  A    between atoms: _105  and  _106
REMARK   41  A    between atoms: _109  and  _111
REMARK   42  A    between atoms: _111  and  _112
REMARK   43  A    between atoms: _111  and  _114
REMARK   44  A    between atoms: _114  and  _115
REMARK   45  A    between atoms: _120  and  _122
REMARK   46  A    between atoms: _122  and  _123
REMARK   47  A    between atoms: _122  and  _125
REMARK   48  A    between atoms: _125  and  _126
REMARK   49  A    between atoms: _129  and  _131
REMARK   50  A    between atoms: _131  and  _132
REMARK   51  A    between atoms: _131  and  _134
REMARK   52  A    between atoms: _134  and  _135
REMARK   53  A    between atoms: _140  and  _142
REMARK   54  A    between atoms: _142  and  _143
REMARK   55  A    between atoms: _145  and  _147
REMARK   56  A    between atoms: _147  and  _148
REMARK   57  A    between atoms: _150  and  _152
REMARK   58  A    between atoms: _152  and  _153
REMARK   59  A    between atoms: _152  and  _155
REMARK   60  A    between atoms: _155  and  _156
REMARK   61  A    between atoms: _160  and  ZN_433
REMARK   62  A    between atoms: _161  and  _163
REMARK   63  A    between atoms: _163  and  _164
REMARK   64  A    between atoms: _163  and  _166
REMARK   65  A    between atoms: _166  and  _167
REMARK   66  A    between atoms: _170  and  _172
REMARK   67  A    between atoms: _172  and  _173
REMARK   68  A    between atoms: _172  and  _175
REMARK   69  A    between atoms: _175  and  _176
REMARK   70  A    between atoms: _186  and  _188
REMARK   71  A    between atoms: _188  and  _189
REMARK   72  A    between atoms: _188  and  _191
REMARK   73  A    between atoms: _191  and  _192
REMARK   74  A    between atoms: _195  and  _197
REMARK   75  A    between atoms: _197  and  _198
REMARK   76  A    between atoms: _201  and  _203
REMARK   77  A    between atoms: _203  and  _204
REMARK   78  A    between atoms: _203  and  _206
REMARK   79  A    between atoms: _206  and  _207
REMARK   80  A    between atoms: _207  and  _208
REMARK   81  A    between atoms: _211  and  _213
REMARK   82  A    between atoms: _213  and  _214
REMARK   83  A    between atoms: _213  and  _216
REMARK   84  A    between atoms: _216  and  _217
REMARK   85  A    between atoms: _217  and  _218
REMARK   86  A    between atoms: _218  and  _220
REMARK   87  A    between atoms: _220  and  ZN_432
REMARK   88  A    between atoms: _221  and  _223
REMARK   89  A    between atoms: _223  and  _224
REMARK   90  A    between atoms: _223  and  _226
REMARK   91  A    between atoms: _226  and  _227
REMARK   92  A    between atoms: _233  and  _235
REMARK   93  A    between atoms: _235  and  _236
REMARK   94  A    between atoms: _238  and  _240
REMARK   95  A    between atoms: _240  and  _241
REMARK   96  A    between atoms: _240  and  _243
REMARK   97  A    between atoms: _243  and  _244
REMARK   98  A    between atoms: _247  and  _249
REMARK   99  A    between atoms: _249  and  _250
REMARK  100  A    between atoms: _249  and  _252
REMARK  101  A    between atoms: _252  and  _253
REMARK  102  A    between atoms: _256  and  _258
REMARK  103  A    between atoms: _258  and  _259
REMARK  104  A    between atoms: _258  and  _261
REMARK  105  A    between atoms: _261  and  _262
REMARK  106  A    between atoms: _267  and  _269
REMARK  107  A    between atoms: _269  and  _270
REMARK  108  A    between atoms: _269  and  _272
REMARK  109  A    between atoms: _272  and  _273
REMARK  110  A    between atoms: _273  and  _274
REMARK  111  A    between atoms: _274  and  ZN_433
REMARK  112  A    between atoms: _276  and  _278
REMARK  113  A    between atoms: _278  and  _279
REMARK  114  A    between atoms: _278  and  _281
REMARK  115  A    between atoms: _281  and  _282
REMARK  116  A    between atoms: _284  and  _286
REMARK  117  A    between atoms: _286  and  _287
REMARK  118  A    between atoms: _286  and  _289
REMARK  119  A    between atoms: _289  and  _290
REMARK  120  A    between atoms: _292  and  _294
REMARK  121  A    between atoms: _294  and  _295
REMARK  122  A    between atoms: _297  and  _299
REMARK  123  A    between atoms: _299  and  _300
REMARK  124  A    between atoms: _299  and  _302
REMARK  125  A    between atoms: _302  and  _303
REMARK  126  A    between atoms: _305  and  _307
REMARK  127  A    between atoms: _307  and  _308
REMARK  128  A    between atoms: _307  and  _310
REMARK  129  A    between atoms: _310  and  _311
REMARK  130  A    between atoms: _314  and  _316
REMARK  131  A    between atoms: _316  and  _317
REMARK  132  A    between atoms: _316  and  _319
REMARK  133  A    between atoms: _319  and  _320
REMARK  134  A    between atoms: _320  and  _321
REMARK  135  A    between atoms: _324  and  _326
REMARK  136  A    between atoms: _326  and  _327
REMARK  137  A    between atoms: _326  and  _329
REMARK  138  A    between atoms: _329  and  _330
REMARK  139  A    between atoms: _330  and  _331
REMARK  140  A    between atoms: _331  and  _332
REMARK  141  A    between atoms: _341  and  _343
REMARK  142  A    between atoms: _343  and  _344
REMARK  143  A    between atoms: _343  and  _346
REMARK  144  A    between atoms: _346  and  _347
REMARK  145  A    between atoms: _347  and  _348
REMARK  146  A    between atoms: _348  and  _349
REMARK  147  A    between atoms: _358  and  _360
REMARK  148  A    between atoms: _360  and  _361
REMARK  149  A    between atoms: _360  and  _363
REMARK  150  A    between atoms: _363  and  _364
REMARK  151  A    between atoms: _366  and  _368
REMARK  152  A    between atoms: _368  and  _369
REMARK  153  A    between atoms: _368  and  _371
REMARK  154  A    between atoms: _371  and  _372
REMARK  155  A    between atoms: _377  and  _378
REMARK  156  A    between atoms: _380  and  _382
REMARK  157  A    between atoms: _382  and  _383
REMARK  158  A    between atoms: _382  and  _385
REMARK  159  A    between atoms: _385  and  _386
REMARK  160  A    between atoms: _390  and  ZN_432
REMARK  161  A    between atoms: _391  and  _393
REMARK  162  A    between atoms: _393  and  _394
REMARK  163  A    between atoms: _393  and  _396
REMARK  164  A    between atoms: _396  and  _397
REMARK  165  A    between atoms: _402  and  _403
REMARK  166  A    between atoms: _405  and  _407
REMARK  167  A    between atoms: _407  and  _408
REMARK  168  A    between atoms: _407  and  _410
REMARK  169  A    between atoms: _410  and  _411
REMARK  170  A    between atoms: _411  and  _412
REMARK  171  A    between atoms: _412  and  _413
REMARK  172  A    between atoms: _413  and  _414
REMARK  173  A    between atoms: _418  and  _420
REMARK  174  A    between atoms: _420  and  _421
REMARK  175  A    between atoms: _420  and  _423
REMARK  176  A    between atoms: _423  and  _424
REMARK  177  A    between atoms: _429  and  _430
REMARK                            x       y       z     vdW  Elec       q    Type
REMARK                         _______ _______ _______ _____ _____    ______ ____
ROOT
ATOM      1  O   HOH     1       9.496  44.423  12.213  0.00  0.00    +0.000 OA
ENDROOT
TORSDOF 0
REMARK  Name = ../refined-set-2016/3ff3/3ff3_pocket.pdb
REMARK  177 active torsions:
REMARK  status: ('A' for Active; 'I' for Inactive)
REMARK    1  A    between atoms: _1  and  _3
REMARK    2  A    between atoms: _3  and  _4
REMARK    3  A    between atoms: _3  and  _6
REMARK    4  A    between atoms: _6  and  _7
REMARK    5  A    between atoms: _13  and  _15
REMARK    6  A    between atoms: _15  and  _16
REMARK    7  A    between atoms: _15  and  _18
REMARK    8  A    between atoms: _18  and  _19
REMARK    9  A    between atoms: _25  and  _27
REMARK   10  A    between atoms: _27  and  _28
REMARK   11  A    between atoms: _27  and  _30
REMARK   12  A    between atoms: _30  and  _31
REMARK   13  A    between atoms: _31  and  _32
REMARK   14  A    between atoms: _32  and  _33
REMARK   15  A    between atoms: _42  and  _44
REMARK   16  A    between atoms: _44  and  _45
REMARK   17  A    between atoms: _47  and  _49
REMARK   18  A    between atoms: _49  and  _50
REMARK   19  A    between atoms: _49  and  _52
REMARK   20  A    between atoms: _52  and  _53
REMARK   21  A    between atoms: _53  and  _54
REMARK   22  A    between atoms: _59  and  _61
REMARK   23  A    between atoms: _61  and  _62
REMARK   24  A    between atoms: _61  and  _64
REMARK   25  A    between atoms: _64  and  _65
REMARK   26  A    between atoms: _65  and  _66
REMARK   27  A    between atoms: _66  and  _67
REMARK   28  A    between atoms: _76  and  _78
REMARK   29  A    between atoms: _78  and  _79
REMARK   30  A    between atoms: _81  and  _83
REMARK   31  A    between atoms: _83  and  _84
REMARK   32  A    between atoms: _83  and  _86
REMARK   33  A    between atoms: _86  and  _87
REMARK   34  A    between atoms: _92  and  _94
REMARK   35  A    between atoms: _94  and  _95
REMARK   36  A    between atoms: _94  and  _97
REMARK   37  A    between atoms: _100  and  _102
REMARK   38  A    between atoms: _102  and  _103
REMARK   39  A    between atoms: _102  and  _105
REMARK   40  A    between atoms: _105  and  _106
REMARK   41  A    between atoms: _109  and  _111
REMARK   42  A    between atoms: _111  and  _112
REMARK   43  A    between atoms: _111  and  _114
REMARK   44  A    between atoms: _114  and  _115
REMARK   45  A    between atoms: _120  and  _122
REMARK   46  A    between atoms: _122  and  _123
REMARK   47  A    between atoms: _122  and  _125
REMARK   48  A    between atoms: _125  and  _126
REMARK   49  A    between atoms: _129  and  _131
REMARK   50  A    between atoms: _131  and  _132
REMARK   51  A    between atoms: _131  and  _134
REMARK   52  A    between atoms: _134  and  _135
REMARK   53  A    between atoms: _140  and  _142
REMARK   54  A    between atoms: _142  and  _143
REMARK   55  A    between atoms: _145  and  _147
REMARK   56  A    between atoms: _147  and  _148
REMARK   57  A    between atoms: _150  and  _152
REMARK   58  A    between atoms: _152  and  _153
REMARK   59  A    between atoms: _152  and  _155
REMARK   60  A    between atoms: _155  and  _156
REMARK   61  A    between atoms: _160  and  ZN_433
REMARK   62  A    between atoms: _161  and  _163
REMARK   63  A    between atoms: _163  and  _164
REMARK   64  A    between atoms: _163  and  _166
REMARK   65  A    between atoms: _166  and  _167
REMARK   66  A    between atoms: _170  and  _172
REMARK   67  A    between atoms: _172  and  _173
REMARK   68  A    between atoms: _172  and  _175
REMARK   69  A    between atoms: _175  and  _176
REMARK   70  A    between atoms: _186  and  _188
REMARK   71  A    between atoms: _188  and  _189
REMARK   72  A    between atoms: _188  and  _191
REMARK   73  A    between atoms: _191  and  _192
REMARK   74  A    between atoms: _195  and  _197
REMARK   75  A    between atoms: _197  and  _198
REMARK   76  A    between atoms: _201  and  _203
REMARK   77  A    between atoms: _203  and  _204
REMARK   78  A    between atoms: _203  and  _206
REMARK   79  A    between atoms: _206  and  _207
REMARK   80  A    between atoms: _207  and  _208
REMARK   81  A    between atoms: _211  and  _213
REMARK   82  A    between atoms: _213  and  _214
REMARK   83  A    between atoms: _213  and  _216
REMARK   84  A    between atoms: _216  and  _217
REMARK   85  A    between atoms: _217  and  _218
REMARK   86  A    between atoms: _218  and  _220
REMARK   87  A    between atoms: _220  and  ZN_432
REMARK   88  A    between atoms: _221  and  _223
REMARK   89  A    between atoms: _223  and  _224
REMARK   90  A    between atoms: _223  and  _226
REMARK   91  A    between atoms: _226  and  _227
REMARK   92  A    between atoms: _233  and  _235
REMARK   93  A    between atoms: _235  and  _236
REMARK   94  A    between atoms: _238  and  _240
REMARK   95  A    between atoms: _240  and  _241
REMARK   96  A    between atoms: _240  and  _243
REMARK   97  A    between atoms: _243  and  _244
REMARK   98  A    between atoms: _247  and  _249
REMARK   99  A    between atoms: _249  and  _250
REMARK  100  A    between atoms: _249  and  _252
REMARK  101  A    between atoms: _252  and  _253
REMARK  102  A    between atoms: _256  and  _258
REMARK  103  A    between atoms: _258  and  _259
REMARK  104  A    between atoms: _258  and  _261
REMARK  105  A    between atoms: _261  and  _262
REMARK  106  A    between atoms: _267  and  _269
REMARK  107  A    between atoms: _269  and  _270
REMARK  108  A    between atoms: _269  and  _272
REMARK  109  A    between atoms: _272  and  _273
REMARK  110  A    between atoms: _273  and  _274
REMARK  111  A    between atoms: _274  and  ZN_433
REMARK  112  A    between atoms: _276  and  _278
REMARK  113  A    between atoms: _278  and  _279
REMARK  114  A    between atoms: _278  and  _281
REMARK  115  A    between atoms: _281  and  _282
REMARK  116  A    between atoms: _284  and  _286
REMARK  117  A    between atoms: _286  and  _287
REMARK  118  A    between atoms: _286  and  _289
REMARK  119  A    between atoms: _289  and  _290
REMARK  120  A    between atoms: _292  and  _294
REMARK  121  A    between atoms: _294  and  _295
REMARK  122  A    between atoms: _297  and  _299
REMARK  123  A    between atoms: _299  and  _300
REMARK  124  A    between atoms: _299  and  _302
REMARK  125  A    between atoms: _302  and  _303
REMARK  126  A    between atoms: _305  and  _307
REMARK  127  A    between atoms: _307  and  _308
REMARK  128  A    between atoms: _307  and  _310
REMARK  129  A    between atoms: _310  and  _311
REMARK  130  A    between atoms: _314  and  _316
REMARK  131  A    between atoms: _316  and  _317
REMARK  132  A    between atoms: _316  and  _319
REMARK  133  A    between atoms: _319  and  _320
REMARK  134  A    between atoms: _320  and  _321
REMARK  135  A    between atoms: _324  and  _326
REMARK  136  A    between atoms: _326  and  _327
REMARK  137  A    between atoms: _326  and  _329
REMARK  138  A    between atoms: _329  and  _330
REMARK  139  A    between atoms: _330  and  _331
REMARK  140  A    between atoms: _331  and  _332
REMARK  141  A    between atoms: _341  and  _343
REMARK  142  A    between atoms: _343  and  _344
REMARK  143  A    between atoms: _343  and  _346
REMARK  144  A    between atoms: _346  and  _347
REMARK  145  A    between atoms: _347  and  _348
REMARK  146  A    between atoms: _348  and  _349
REMARK  147  A    between atoms: _358  and  _360
REMARK  148  A    between atoms: _360  and  _361
REMARK  149  A    between atoms: _360  and  _363
REMARK  150  A    between atoms: _363  and  _364
REMARK  151  A    between atoms: _366  and  _368
REMARK  152  A    between atoms: _368  and  _369
REMARK  153  A    between atoms: _368  and  _371
REMARK  154  A    between atoms: _371  and  _372
REMARK  155  A    between atoms: _377  and  _378
REMARK  156  A    between atoms: _380  and  _382
REMARK  157  A    between atoms: _382  and  _383
REMARK  158  A    between atoms: _382  and  _385
REMARK  159  A    between atoms: _385  and  _386
REMARK  160  A    between atoms: _390  and  ZN_432
REMARK  161  A    between atoms: _391  and  _393
REMARK  162  A    between atoms: _393  and  _394
REMARK  163  A    between atoms: _393  and  _396
REMARK  164  A    between atoms: _396  and  _397
REMARK  165  A    between atoms: _402  and  _403
REMARK  166  A    between atoms: _405  and  _407
REMARK  167  A    between atoms: _407  and  _408
REMARK  168  A    between atoms: _407  and  _410
REMARK  169  A    between atoms: _410  and  _411
REMARK  170  A    between atoms: _411  and  _412
REMARK  171  A    between atoms: _412  and  _413
REMARK  172  A    between atoms: _413  and  _414
REMARK  173  A    between atoms: _418  and  _420
REMARK  174  A    between atoms: _420  and  _421
REMARK  175  A    between atoms: _420  and  _423
REMARK  176  A    between atoms: _423  and  _424
REMARK  177  A    between atoms: _429  and  _430
REMARK                            x       y       z     vdW  Elec       q    Type
REMARK                         _______ _______ _______ _____ _____    ______ ____
ROOT
ATOM      1  O   HOH     1      13.495  38.615  15.996  0.00  0.00    +0.000 OA
ENDROOT
TORSDOF 0
REMARK  Name = ../refined-set-2016/3ff3/3ff3_pocket.pdb
REMARK  177 active torsions:
REMARK  status: ('A' for Active; 'I' for Inactive)
REMARK    1  A    between atoms: _1  and  _3
REMARK    2  A    between atoms: _3  and  _4
REMARK    3  A    between atoms: _3  and  _6
REMARK    4  A    between atoms: _6  and  _7
REMARK    5  A    between atoms: _13  and  _15
REMARK    6  A    between atoms: _15  and  _16
REMARK    7  A    between atoms: _15  and  _18
REMARK    8  A    between atoms: _18  and  _19
REMARK    9  A    between atoms: _25  and  _27
REMARK   10  A    between atoms: _27  and  _28
REMARK   11  A    between atoms: _27  and  _30
REMARK   12  A    between atoms: _30  and  _31
REMARK   13  A    between atoms: _31  and  _32
REMARK   14  A    between atoms: _32  and  _33
REMARK   15  A    between atoms: _42  and  _44
REMARK   16  A    between atoms: _44  and  _45
REMARK   17  A    between atoms: _47  and  _49
REMARK   18  A    between atoms: _49  and  _50
REMARK   19  A    between atoms: _49  and  _52
REMARK   20  A    between atoms: _52  and  _53
REMARK   21  A    between atoms: _53  and  _54
REMARK   22  A    between atoms: _59  and  _61
REMARK   23  A    between atoms: _61  and  _62
REMARK   24  A    between atoms: _61  and  _64
REMARK   25  A    between atoms: _64  and  _65
REMARK   26  A    between atoms: _65  and  _66
REMARK   27  A    between atoms: _66  and  _67
REMARK   28  A    between atoms: _76  and  _78
REMARK   29  A    between atoms: _78  and  _79
REMARK   30  A    between atoms: _81  and  _83
REMARK   31  A    between atoms: _83  and  _84
REMARK   32  A    between atoms: _83  and  _86
REMARK   33  A    between atoms: _86  and  _87
REMARK   34  A    between atoms: _92  and  _94
REMARK   35  A    between atoms: _94  and  _95
REMARK   36  A    between atoms: _94  and  _97
REMARK   37  A    between atoms: _100  and  _102
REMARK   38  A    between atoms: _102  and  _103
REMARK   39  A    between atoms: _102  and  _105
REMARK   40  A    between atoms: _105  and  _106
REMARK   41  A    between atoms: _109  and  _111
REMARK   42  A    between atoms: _111  and  _112
REMARK   43  A    between atoms: _111  and  _114
REMARK   44  A    between atoms: _114  and  _115
REMARK   45  A    between atoms: _120  and  _122
REMARK   46  A    between atoms: _122  and  _123
REMARK   47  A    between atoms: _122  and  _125
REMARK   48  A    between atoms: _125  and  _126
REMARK   49  A    between atoms: _129  and  _131
REMARK   50  A    between atoms: _131  and  _132
REMARK   51  A    between atoms: _131  and  _134
REMARK   52  A    between atoms: _134  and  _135
REMARK   53  A    between atoms: _140  and  _142
REMARK   54  A    between atoms: _142  and  _143
REMARK   55  A    between atoms: _145  and  _147
REMARK   56  A    between atoms: _147  and  _148
REMARK   57  A    between atoms: _150  and  _152
REMARK   58  A    between atoms: _152  and  _153
REMARK   59  A    between atoms: _152  and  _155
REMARK   60  A    between atoms: _155  and  _156
REMARK   61  A    between atoms: _160  and  ZN_433
REMARK   62  A    between atoms: _161  and  _163
REMARK   63  A    between atoms: _163  and  _164
REMARK   64  A    between atoms: _163  and  _166
REMARK   65  A    between atoms: _166  and  _167
REMARK   66  A    between atoms: _170  and  _172
REMARK   67  A    between atoms: _172  and  _173
REMARK   68  A    between atoms: _172  and  _175
REMARK   69  A    between atoms: _175  and  _176
REMARK   70  A    between atoms: _186  and  _188
REMARK   71  A    between atoms: _188  and  _189
REMARK   72  A    between atoms: _188  and  _191
REMARK   73  A    between atoms: _191  and  _192
REMARK   74  A    between atoms: _195  and  _197
REMARK   75  A    between atoms: _197  and  _198
REMARK   76  A    between atoms: _201  and  _203
REMARK   77  A    between atoms: _203  and  _204
REMARK   78  A    between atoms: _203  and  _206
REMARK   79  A    between atoms: _206  and  _207
REMARK   80  A    between atoms: _207  and  _208
REMARK   81  A    between atoms: _211  and  _213
REMARK   82  A    between atoms: _213  and  _214
REMARK   83  A    between atoms: _213  and  _216
REMARK   84  A    between atoms: _216  and  _217
REMARK   85  A    between atoms: _217  and  _218
REMARK   86  A    between atoms: _218  and  _220
REMARK   87  A    between atoms: _220  and  ZN_432
REMARK   88  A    between atoms: _221  and  _223
REMARK   89  A    between atoms: _223  and  _224
REMARK   90  A    between atoms: _223  and  _226
REMARK   91  A    between atoms: _226  and  _227
REMARK   92  A    between atoms: _233  and  _235
REMARK   93  A    between atoms: _235  and  _236
REMARK   94  A    between atoms: _238  and  _240
REMARK   95  A    between atoms: _240  and  _241
REMARK   96  A    between atoms: _240  and  _243
REMARK   97  A    between atoms: _243  and  _244
REMARK   98  A    between atoms: _247  and  _249
REMARK   99  A    between atoms: _249  and  _250
REMARK  100  A    between atoms: _249  and  _252
REMARK  101  A    between atoms: _252  and  _253
REMARK  102  A    between atoms: _256  and  _258
REMARK  103  A    between atoms: _258  and  _259
REMARK  104  A    between atoms: _258  and  _261
REMARK  105  A    between atoms: _261  and  _262
REMARK  106  A    between atoms: _267  and  _269
REMARK  107  A    between atoms: _269  and  _270
REMARK  108  A    between atoms: _269  and  _272
REMARK  109  A    between atoms: _272  and  _273
REMARK  110  A    between atoms: _273  and  _274
REMARK  111  A    between atoms: _274  and  ZN_433
REMARK  112  A    between atoms: _276  and  _278
REMARK  113  A    between atoms: _278  and  _279
REMARK  114  A    between atoms: _278  and  _281
REMARK  115  A    between atoms: _281  and  _282
REMARK  116  A    between atoms: _284  and  _286
REMARK  117  A    between atoms: _286  and  _287
REMARK  118  A    between atoms: _286  and  _289
REMARK  119  A    between atoms: _289  and  _290
REMARK  120  A    between atoms: _292  and  _294
REMARK  121  A    between atoms: _294  and  _295
REMARK  122  A    between atoms: _297  and  _299
REMARK  123  A    between atoms: _299  and  _300
REMARK  124  A    between atoms: _299  and  _302
REMARK  125  A    between atoms: _302  and  _303
REMARK  126  A    between atoms: _305  and  _307
REMARK  127  A    between atoms: _307  and  _308
REMARK  128  A    between atoms: _307  and  _310
REMARK  129  A    between atoms: _310  and  _311
REMARK  130  A    between atoms: _314  and  _316
REMARK  131  A    between atoms: _316  and  _317
REMARK  132  A    between atoms: _316  and  _319
REMARK  133  A    between atoms: _319  and  _320
REMARK  134  A    between atoms: _320  and  _321
REMARK  135  A    between atoms: _324  and  _326
REMARK  136  A    between atoms: _326  and  _327
REMARK  137  A    between atoms: _326  and  _329
REMARK  138  A    between atoms: _329  and  _330
REMARK  139  A    between atoms: _330  and  _331
REMARK  140  A    between atoms: _331  and  _332
REMARK  141  A    between atoms: _341  and  _343
REMARK  142  A    between atoms: _343  and  _344
REMARK  143  A    between atoms: _343  and  _346
REMARK  144  A    between atoms: _346  and  _347
REMARK  145  A    between atoms: _347  and  _348
REMARK  146  A    between atoms: _348  and  _349
REMARK  147  A    between atoms: _358  and  _360
REMARK  148  A    between atoms: _360  and  _361
REMARK  149  A    between atoms: _360  and  _363
REMARK  150  A    between atoms: _363  and  _364
REMARK  151  A    between atoms: _366  and  _368
REMARK  152  A    between atoms: _368  and  _369
REMARK  153  A    between atoms: _368  and  _371
REMARK  154  A    between atoms: _371  and  _372
REMARK  155  A    between atoms: _377  and  _378
REMARK  156  A    between atoms: _380  and  _382
REMARK  157  A    between atoms: _382  and  _383
REMARK  158  A    between atoms: _382  and  _385
REMARK  159  A    between atoms: _385  and  _386
REMARK  160  A    between atoms: _390  and  ZN_432
REMARK  161  A    between atoms: _391  and  _393
REMARK  162  A    between atoms: _393  and  _394
REMARK  163  A    between atoms: _393  and  _396
REMARK  164  A    between atoms: _396  and  _397
REMARK  165  A    between atoms: _402  and  _403
REMARK  166  A    between atoms: _405  and  _407
REMARK  167  A    between atoms: _407  and  _408
REMARK  168  A    between atoms: _407  and  _410
REMARK  169  A    between atoms: _410  and  _411
REMARK  170  A    between atoms: _411  and  _412
REMARK  171  A    between atoms: _412  and  _413
REMARK  172  A    between atoms: _413  and  _414
REMARK  173  A    between atoms: _418  and  _420
REMARK  174  A    between atoms: _420  and  _421
REMARK  175  A    between atoms: _420  and  _423
REMARK  176  A    between atoms: _423  and  _424
REMARK  177  A    between atoms: _429  and  _430
REMARK                            x       y       z     vdW  Elec       q    Type
REMARK                         _______ _______ _______ _____ _____    ______ ____
ROOT
ATOM      1  O   HOH     1      24.428  41.908  17.215  0.00  0.00    +0.000 OA
ENDROOT
TORSDOF 0
REMARK  Name = ../refined-set-2016/3ff3/3ff3_pocket.pdb
REMARK  177 active torsions:
REMARK  status: ('A' for Active; 'I' for Inactive)
REMARK    1  A    between atoms: _1  and  _3
REMARK    2  A    between atoms: _3  and  _4
REMARK    3  A    between atoms: _3  and  _6
REMARK    4  A    between atoms: _6  and  _7
REMARK    5  A    between atoms: _13  and  _15
REMARK    6  A    between atoms: _15  and  _16
REMARK    7  A    between atoms: _15  and  _18
REMARK    8  A    between atoms: _18  and  _19
REMARK    9  A    between atoms: _25  and  _27
REMARK   10  A    between atoms: _27  and  _28
REMARK   11  A    between atoms: _27  and  _30
REMARK   12  A    between atoms: _30  and  _31
REMARK   13  A    between atoms: _31  and  _32
REMARK   14  A    between atoms: _32  and  _33
REMARK   15  A    between atoms: _42  and  _44
REMARK   16  A    between atoms: _44  and  _45
REMARK   17  A    between atoms: _47  and  _49
REMARK   18  A    between atoms: _49  and  _50
REMARK   19  A    between atoms: _49  and  _52
REMARK   20  A    between atoms: _52  and  _53
REMARK   21  A    between atoms: _53  and  _54
REMARK   22  A    between atoms: _59  and  _61
REMARK   23  A    between atoms: _61  and  _62
REMARK   24  A    between atoms: _61  and  _64
REMARK   25  A    between atoms: _64  and  _65
REMARK   26  A    between atoms: _65  and  _66
REMARK   27  A    between atoms: _66  and  _67
REMARK   28  A    between atoms: _76  and  _78
REMARK   29  A    between atoms: _78  and  _79
REMARK   30  A    between atoms: _81  and  _83
REMARK   31  A    between atoms: _83  and  _84
REMARK   32  A    between atoms: _83  and  _86
REMARK   33  A    between atoms: _86  and  _87
REMARK   34  A    between atoms: _92  and  _94
REMARK   35  A    between atoms: _94  and  _95
REMARK   36  A    between atoms: _94  and  _97
REMARK   37  A    between atoms: _100  and  _102
REMARK   38  A    between atoms: _102  and  _103
REMARK   39  A    between atoms: _102  and  _105
REMARK   40  A    between atoms: _105  and  _106
REMARK   41  A    between atoms: _109  and  _111
REMARK   42  A    between atoms: _111  and  _112
REMARK   43  A    between atoms: _111  and  _114
REMARK   44  A    between atoms: _114  and  _115
REMARK   45  A    between atoms: _120  and  _122
REMARK   46  A    between atoms: _122  and  _123
REMARK   47  A    between atoms: _122  and  _125
REMARK   48  A    between atoms: _125  and  _126
REMARK   49  A    between atoms: _129  and  _131
REMARK   50  A    between atoms: _131  and  _132
REMARK   51  A    between atoms: _131  and  _134
REMARK   52  A    between atoms: _134  and  _135
REMARK   53  A    between atoms: _140  and  _142
REMARK   54  A    between atoms: _142  and  _143
REMARK   55  A    between atoms: _145  and  _147
REMARK   56  A    between atoms: _147  and  _148
REMARK   57  A    between atoms: _150  and  _152
REMARK   58  A    between atoms: _152  and  _153
REMARK   59  A    between atoms: _152  and  _155
REMARK   60  A    between atoms: _155  and  _156
REMARK   61  A    between atoms: _160  and  ZN_433
REMARK   62  A    between atoms: _161  and  _163
REMARK   63  A    between atoms: _163  and  _164
REMARK   64  A    between atoms: _163  and  _166
REMARK   65  A    between atoms: _166  and  _167
REMARK   66  A    between atoms: _170  and  _172
REMARK   67  A    between atoms: _172  and  _173
REMARK   68  A    between atoms: _172  and  _175
REMARK   69  A    between atoms: _175  and  _176
REMARK   70  A    between atoms: _186  and  _188
REMARK   71  A    between atoms: _188  and  _189
REMARK   72  A    between atoms: _188  and  _191
REMARK   73  A    between atoms: _191  and  _192
REMARK   74  A    between atoms: _195  and  _197
REMARK   75  A    between atoms: _197  and  _198
REMARK   76  A    between atoms: _201  and  _203
REMARK   77  A    between atoms: _203  and  _204
REMARK   78  A    between atoms: _203  and  _206
REMARK   79  A    between atoms: _206  and  _207
REMARK   80  A    between atoms: _207  and  _208
REMARK   81  A    between atoms: _211  and  _213
REMARK   82  A    between atoms: _213  and  _214
REMARK   83  A    between atoms: _213  and  _216
REMARK   84  A    between atoms: _216  and  _217
REMARK   85  A    between atoms: _217  and  _218
REMARK   86  A    between atoms: _218  and  _220
REMARK   87  A    between atoms: _220  and  ZN_432
REMARK   88  A    between atoms: _221  and  _223
REMARK   89  A    between atoms: _223  and  _224
REMARK   90  A    between atoms: _223  and  _226
REMARK   91  A    between atoms: _226  and  _227
REMARK   92  A    between atoms: _233  and  _235
REMARK   93  A    between atoms: _235  and  _236
REMARK   94  A    between atoms: _238  and  _240
REMARK   95  A    between atoms: _240  and  _241
REMARK   96  A    between atoms: _240  and  _243
REMARK   97  A    between atoms: _243  and  _244
REMARK   98  A    between atoms: _247  and  _249
REMARK   99  A    between atoms: _249  and  _250
REMARK  100  A    between atoms: _249  and  _252
REMARK  101  A    between atoms: _252  and  _253
REMARK  102  A    between atoms: _256  and  _258
REMARK  103  A    between atoms: _258  and  _259
REMARK  104  A    between atoms: _258  and  _261
REMARK  105  A    between atoms: _261  and  _262
REMARK  106  A    between atoms: _267  and  _269
REMARK  107  A    between atoms: _269  and  _270
REMARK  108  A    between atoms: _269  and  _272
REMARK  109  A    between atoms: _272  and  _273
REMARK  110  A    between atoms: _273  and  _274
REMARK  111  A    between atoms: _274  and  ZN_433
REMARK  112  A    between atoms: _276  and  _278
REMARK  113  A    between atoms: _278  and  _279
REMARK  114  A    between atoms: _278  and  _281
REMARK  115  A    between atoms: _281  and  _282
REMARK  116  A    between atoms: _284  and  _286
REMARK  117  A    between atoms: _286  and  _287
REMARK  118  A    between atoms: _286  and  _289
REMARK  119  A    between atoms: _289  and  _290
REMARK  120  A    between atoms: _292  and  _294
REMARK  121  A    between atoms: _294  and  _295
REMARK  122  A    between atoms: _297  and  _299
REMARK  123  A    between atoms: _299  and  _300
REMARK  124  A    between atoms: _299  and  _302
REMARK  125  A    between atoms: _302  and  _303
REMARK  126  A    between atoms: _305  and  _307
REMARK  127  A    between atoms: _307  and  _308
REMARK  128  A    between atoms: _307  and  _310
REMARK  129  A    between atoms: _310  and  _311
REMARK  130  A    between atoms: _314  and  _316
REMARK  131  A    between atoms: _316  and  _317
REMARK  132  A    between atoms: _316  and  _319
REMARK  133  A    between atoms: _319  and  _320
REMARK  134  A    between atoms: _320  and  _321
REMARK  135  A    between atoms: _324  and  _326
REMARK  136  A    between atoms: _326  and  _327
REMARK  137  A    between atoms: _326  and  _329
REMARK  138  A    between atoms: _329  and  _330
REMARK  139  A    between atoms: _330  and  _331
REMARK  140  A    between atoms: _331  and  _332
REMARK  141  A    between atoms: _341  and  _343
REMARK  142  A    between atoms: _343  and  _344
REMARK  143  A    between atoms: _343  and  _346
REMARK  144  A    between atoms: _346  and  _347
REMARK  145  A    between atoms: _347  and  _348
REMARK  146  A    between atoms: _348  and  _349
REMARK  147  A    between atoms: _358  and  _360
REMARK  148  A    between atoms: _360  and  _361
REMARK  149  A    between atoms: _360  and  _363
REMARK  150  A    between atoms: _363  and  _364
REMARK  151  A    between atoms: _366  and  _368
REMARK  152  A    between atoms: _368  and  _369
REMARK  153  A    between atoms: _368  and  _371
REMARK  154  A    between atoms: _371  and  _372
REMARK  155  A    between atoms: _377  and  _378
REMARK  156  A    between atoms: _380  and  _382
REMARK  157  A    between atoms: _382  and  _383
REMARK  158  A    between atoms: _382  and  _385
REMARK  159  A    between atoms: _385  and  _386
REMARK  160  A    between atoms: _390  and  ZN_432
REMARK  161  A    between atoms: _391  and  _393
REMARK  162  A    between atoms: _393  and  _394
REMARK  163  A    between atoms: _393  and  _396
REMARK  164  A    between atoms: _396  and  _397
REMARK  165  A    between atoms: _402  and  _403
REMARK  166  A    between atoms: _405  and  _407
REMARK  167  A    between atoms: _407  and  _408
REMARK  168  A    between atoms: _407  and  _410
REMARK  169  A    between atoms: _410  and  _411
REMARK  170  A    between atoms: _411  and  _412
REMARK  171  A    between atoms: _412  and  _413
REMARK  172  A    between atoms: _413  and  _414
REMARK  173  A    between atoms: _418  and  _420
REMARK  174  A    between atoms: _420  and  _421
REMARK  175  A    between atoms: _420  and  _423
REMARK  176  A    between atoms: _423  and  _424
REMARK  177  A    between atoms: _429  and  _430
REMARK                            x       y       z     vdW  Elec       q    Type
REMARK                         _______ _______ _______ _____ _____    ______ ____
ROOT
ATOM      1  O   HOH     1      14.866  38.528   8.181  0.00  0.00    +0.000 OA
ENDROOT
TORSDOF 0
REMARK  Name = ../refined-set-2016/3ff3/3ff3_pocket.pdb
REMARK  177 active torsions:
REMARK  status: ('A' for Active; 'I' for Inactive)
REMARK    1  A    between atoms: _1  and  _3
REMARK    2  A    between atoms: _3  and  _4
REMARK    3  A    between atoms: _3  and  _6
REMARK    4  A    between atoms: _6  and  _7
REMARK    5  A    between atoms: _13  and  _15
REMARK    6  A    between atoms: _15  and  _16
REMARK    7  A    between atoms: _15  and  _18
REMARK    8  A    between atoms: _18  and  _19
REMARK    9  A    between atoms: _25  and  _27
REMARK   10  A    between atoms: _27  and  _28
REMARK   11  A    between atoms: _27  and  _30
REMARK   12  A    between atoms: _30  and  _31
REMARK   13  A    between atoms: _31  and  _32
REMARK   14  A    between atoms: _32  and  _33
REMARK   15  A    between atoms: _42  and  _44
REMARK   16  A    between atoms: _44  and  _45
REMARK   17  A    between atoms: _47  and  _49
REMARK   18  A    between atoms: _49  and  _50
REMARK   19  A    between atoms: _49  and  _52
REMARK   20  A    between atoms: _52  and  _53
REMARK   21  A    between atoms: _53  and  _54
REMARK   22  A    between atoms: _59  and  _61
REMARK   23  A    between atoms: _61  and  _62
REMARK   24  A    between atoms: _61  and  _64
REMARK   25  A    between atoms: _64  and  _65
REMARK   26  A    between atoms: _65  and  _66
REMARK   27  A    between atoms: _66  and  _67
REMARK   28  A    between atoms: _76  and  _78
REMARK   29  A    between atoms: _78  and  _79
REMARK   30  A    between atoms: _81  and  _83
REMARK   31  A    between atoms: _83  and  _84
REMARK   32  A    between atoms: _83  and  _86
REMARK   33  A    between atoms: _86  and  _87
REMARK   34  A    between atoms: _92  and  _94
REMARK   35  A    between atoms: _94  and  _95
REMARK   36  A    between atoms: _94  and  _97
REMARK   37  A    between atoms: _100  and  _102
REMARK   38  A    between atoms: _102  and  _103
REMARK   39  A    between atoms: _102  and  _105
REMARK   40  A    between atoms: _105  and  _106
REMARK   41  A    between atoms: _109  and  _111
REMARK   42  A    between atoms: _111  and  _112
REMARK   43  A    between atoms: _111  and  _114
REMARK   44  A    between atoms: _114  and  _115
REMARK   45  A    between atoms: _120  and  _122
REMARK   46  A    between atoms: _122  and  _123
REMARK   47  A    between atoms: _122  and  _125
REMARK   48  A    between atoms: _125  and  _126
REMARK   49  A    between atoms: _129  and  _131
REMARK   50  A    between atoms: _131  and  _132
REMARK   51  A    between atoms: _131  and  _134
REMARK   52  A    between atoms: _134  and  _135
REMARK   53  A    between atoms: _140  and  _142
REMARK   54  A    between atoms: _142  and  _143
REMARK   55  A    between atoms: _145  and  _147
REMARK   56  A    between atoms: _147  and  _148
REMARK   57  A    between atoms: _150  and  _152
REMARK   58  A    between atoms: _152  and  _153
REMARK   59  A    between atoms: _152  and  _155
REMARK   60  A    between atoms: _155  and  _156
REMARK   61  A    between atoms: _160  and  ZN_433
REMARK   62  A    between atoms: _161  and  _163
REMARK   63  A    between atoms: _163  and  _164
REMARK   64  A    between atoms: _163  and  _166
REMARK   65  A    between atoms: _166  and  _167
REMARK   66  A    between atoms: _170  and  _172
REMARK   67  A    between atoms: _172  and  _173
REMARK   68  A    between atoms: _172  and  _175
REMARK   69  A    between atoms: _175  and  _176
REMARK   70  A    between atoms: _186  and  _188
REMARK   71  A    between atoms: _188  and  _189
REMARK   72  A    between atoms: _188  and  _191
REMARK   73  A    between atoms: _191  and  _192
REMARK   74  A    between atoms: _195  and  _197
REMARK   75  A    between atoms: _197  and  _198
REMARK   76  A    between atoms: _201  and  _203
REMARK   77  A    between atoms: _203  and  _204
REMARK   78  A    between atoms: _203  and  _206
REMARK   79  A    between atoms: _206  and  _207
REMARK   80  A    between atoms: _207  and  _208
REMARK   81  A    between atoms: _211  and  _213
REMARK   82  A    between atoms: _213  and  _214
REMARK   83  A    between atoms: _213  and  _216
REMARK   84  A    between atoms: _216  and  _217
REMARK   85  A    between atoms: _217  and  _218
REMARK   86  A    between atoms: _218  and  _220
REMARK   87  A    between atoms: _220  and  ZN_432
REMARK   88  A    between atoms: _221  and  _223
REMARK   89  A    between atoms: _223  and  _224
REMARK   90  A    between atoms: _223  and  _226
REMARK   91  A    between atoms: _226  and  _227
REMARK   92  A    between atoms: _233  and  _235
REMARK   93  A    between atoms: _235  and  _236
REMARK   94  A    between atoms: _238  and  _240
REMARK   95  A    between atoms: _240  and  _241
REMARK   96  A    between atoms: _240  and  _243
REMARK   97  A    between atoms: _243  and  _244
REMARK   98  A    between atoms: _247  and  _249
REMARK   99  A    between atoms: _249  and  _250
REMARK  100  A    between atoms: _249  and  _252
REMARK  101  A    between atoms: _252  and  _253
REMARK  102  A    between atoms: _256  and  _258
REMARK  103  A    between atoms: _258  and  _259
REMARK  104  A    between atoms: _258  and  _261
REMARK  105  A    between atoms: _261  and  _262
REMARK  106  A    between atoms: _267  and  _269
REMARK  107  A    between atoms: _269  and  _270
REMARK  108  A    between atoms: _269  and  _272
REMARK  109  A    between atoms: _272  and  _273
REMARK  110  A    between atoms: _273  and  _274
REMARK  111  A    between atoms: _274  and  ZN_433
REMARK  112  A    between atoms: _276  and  _278
REMARK  113  A    between atoms: _278  and  _279
REMARK  114  A    between atoms: _278  and  _281
REMARK  115  A    between atoms: _281  and  _282
REMARK  116  A    between atoms: _284  and  _286
REMARK  117  A    between atoms: _286  and  _287
REMARK  118  A    between atoms: _286  and  _289
REMARK  119  A    between atoms: _289  and  _290
REMARK  120  A    between atoms: _292  and  _294
REMARK  121  A    between atoms: _294  and  _295
REMARK  122  A    between atoms: _297  and  _299
REMARK  123  A    between atoms: _299  and  _300
REMARK  124  A    between atoms: _299  and  _302
REMARK  125  A    between atoms: _302  and  _303
REMARK  126  A    between atoms: _305  and  _307
REMARK  127  A    between atoms: _307  and  _308
REMARK  128  A    between atoms: _307  and  _310
REMARK  129  A    between atoms: _310  and  _311
REMARK  130  A    between atoms: _314  and  _316
REMARK  131  A    between atoms: _316  and  _317
REMARK  132  A    between atoms: _316  and  _319
REMARK  133  A    between atoms: _319  and  _320
REMARK  134  A    between atoms: _320  and  _321
REMARK  135  A    between atoms: _324  and  _326
REMARK  136  A    between atoms: _326  and  _327
REMARK  137  A    between atoms: _326  and  _329
REMARK  138  A    between atoms: _329  and  _330
REMARK  139  A    between atoms: _330  and  _331
REMARK  140  A    between atoms: _331  and  _332
REMARK  141  A    between atoms: _341  and  _343
REMARK  142  A    between atoms: _343  and  _344
REMARK  143  A    between atoms: _343  and  _346
REMARK  144  A    between atoms: _346  and  _347
REMARK  145  A    between atoms: _347  and  _348
REMARK  146  A    between atoms: _348  and  _349
REMARK  147  A    between atoms: _358  and  _360
REMARK  148  A    between atoms: _360  and  _361
REMARK  149  A    between atoms: _360  and  _363
REMARK  150  A    between atoms: _363  and  _364
REMARK  151  A    between atoms: _366  and  _368
REMARK  152  A    between atoms: _368  and  _369
REMARK  153  A    between atoms: _368  and  _371
REMARK  154  A    between atoms: _371  and  _372
REMARK  155  A    between atoms: _377  and  _378
REMARK  156  A    between atoms: _380  and  _382
REMARK  157  A    between atoms: _382  and  _383
REMARK  158  A    between atoms: _382  and  _385
REMARK  159  A    between atoms: _385  and  _386
REMARK  160  A    between atoms: _390  and  ZN_432
REMARK  161  A    between atoms: _391  and  _393
REMARK  162  A    between atoms: _393  and  _394
REMARK  163  A    between atoms: _393  and  _396
REMARK  164  A    between atoms: _396  and  _397
REMARK  165  A    between atoms: _402  and  _403
REMARK  166  A    between atoms: _405  and  _407
REMARK  167  A    between atoms: _407  and  _408
REMARK  168  A    between atoms: _407  and  _410
REMARK  169  A    between atoms: _410  and  _411
REMARK  170  A    between atoms: _411  and  _412
REMARK  171  A    between atoms: _412  and  _413
REMARK  172  A    between atoms: _413  and  _414
REMARK  173  A    between atoms: _418  and  _420
REMARK  174  A    between atoms: _420  and  _421
REMARK  175  A    between atoms: _420  and  _423
REMARK  176  A    between atoms: _423  and  _424
REMARK  177  A    between atoms: _429  and  _430
REMARK                            x       y       z     vdW  Elec       q    Type
REMARK                         _______ _______ _______ _____ _____    ______ ____
ROOT
ATOM      1  O   HOH     1      27.196  39.278  17.608  0.00  0.00    +0.000 OA
ENDROOT
TORSDOF 0
REMARK  Name = ../refined-set-2016/3ff3/3ff3_pocket.pdb
REMARK  177 active torsions:
REMARK  status: ('A' for Active; 'I' for Inactive)
REMARK    1  A    between atoms: _1  and  _3
REMARK    2  A    between atoms: _3  and  _4
REMARK    3  A    between atoms: _3  and  _6
REMARK    4  A    between atoms: _6  and  _7
REMARK    5  A    between atoms: _13  and  _15
REMARK    6  A    between atoms: _15  and  _16
REMARK    7  A    between atoms: _15  and  _18
REMARK    8  A    between atoms: _18  and  _19
REMARK    9  A    between atoms: _25  and  _27
REMARK   10  A    between atoms: _27  and  _28
REMARK   11  A    between atoms: _27  and  _30
REMARK   12  A    between atoms: _30  and  _31
REMARK   13  A    between atoms: _31  and  _32
REMARK   14  A    between atoms: _32  and  _33
REMARK   15  A    between atoms: _42  and  _44
REMARK   16  A    between atoms: _44  and  _45
REMARK   17  A    between atoms: _47  and  _49
REMARK   18  A    between atoms: _49  and  _50
REMARK   19  A    between atoms: _49  and  _52
REMARK   20  A    between atoms: _52  and  _53
REMARK   21  A    between atoms: _53  and  _54
REMARK   22  A    between atoms: _59  and  _61
REMARK   23  A    between atoms: _61  and  _62
REMARK   24  A    between atoms: _61  and  _64
REMARK   25  A    between atoms: _64  and  _65
REMARK   26  A    between atoms: _65  and  _66
REMARK   27  A    between atoms: _66  and  _67
REMARK   28  A    between atoms: _76  and  _78
REMARK   29  A    between atoms: _78  and  _79
REMARK   30  A    between atoms: _81  and  _83
REMARK   31  A    between atoms: _83  and  _84
REMARK   32  A    between atoms: _83  and  _86
REMARK   33  A    between atoms: _86  and  _87
REMARK   34  A    between atoms: _92  and  _94
REMARK   35  A    between atoms: _94  and  _95
REMARK   36  A    between atoms: _94  and  _97
REMARK   37  A    between atoms: _100  and  _102
REMARK   38  A    between atoms: _102  and  _103
REMARK   39  A    between atoms: _102  and  _105
REMARK   40  A    between atoms: _105  and  _106
REMARK   41  A    between atoms: _109  and  _111
REMARK   42  A    between atoms: _111  and  _112
REMARK   43  A    between atoms: _111  and  _114
REMARK   44  A    between atoms: _114  and  _115
REMARK   45  A    between atoms: _120  and  _122
REMARK   46  A    between atoms: _122  and  _123
REMARK   47  A    between atoms: _122  and  _125
REMARK   48  A    between atoms: _125  and  _126
REMARK   49  A    between atoms: _129  and  _131
REMARK   50  A    between atoms: _131  and  _132
REMARK   51  A    between atoms: _131  and  _134
REMARK   52  A    between atoms: _134  and  _135
REMARK   53  A    between atoms: _140  and  _142
REMARK   54  A    between atoms: _142  and  _143
REMARK   55  A    between atoms: _145  and  _147
REMARK   56  A    between atoms: _147  and  _148
REMARK   57  A    between atoms: _150  and  _152
REMARK   58  A    between atoms: _152  and  _153
REMARK   59  A    between atoms: _152  and  _155
REMARK   60  A    between atoms: _155  and  _156
REMARK   61  A    between atoms: _160  and  ZN_433
REMARK   62  A    between atoms: _161  and  _163
REMARK   63  A    between atoms: _163  and  _164
REMARK   64  A    between atoms: _163  and  _166
REMARK   65  A    between atoms: _166  and  _167
REMARK   66  A    between atoms: _170  and  _172
REMARK   67  A    between atoms: _172  and  _173
REMARK   68  A    between atoms: _172  and  _175
REMARK   69  A    between atoms: _175  and  _176
REMARK   70  A    between atoms: _186  and  _188
REMARK   71  A    between atoms: _188  and  _189
REMARK   72  A    between atoms: _188  and  _191
REMARK   73  A    between atoms: _191  and  _192
REMARK   74  A    between atoms: _195  and  _197
REMARK   75  A    between atoms: _197  and  _198
REMARK   76  A    between atoms: _201  and  _203
REMARK   77  A    between atoms: _203  and  _204
REMARK   78  A    between atoms: _203  and  _206
REMARK   79  A    between atoms: _206  and  _207
REMARK   80  A    between atoms: _207  and  _208
REMARK   81  A    between atoms: _211  and  _213
REMARK   82  A    between atoms: _213  and  _214
REMARK   83  A    between atoms: _213  and  _216
REMARK   84  A    between atoms: _216  and  _217
REMARK   85  A    between atoms: _217  and  _218
REMARK   86  A    between atoms: _218  and  _220
REMARK   87  A    between atoms: _220  and  ZN_432
REMARK   88  A    between atoms: _221  and  _223
REMARK   89  A    between atoms: _223  and  _224
REMARK   90  A    between atoms: _223  and  _226
REMARK   91  A    between atoms: _226  and  _227
REMARK   92  A    between atoms: _233  and  _235
REMARK   93  A    between atoms: _235  and  _236
REMARK   94  A    between atoms: _238  and  _240
REMARK   95  A    between atoms: _240  and  _241
REMARK   96  A    between atoms: _240  and  _243
REMARK   97  A    between atoms: _243  and  _244
REMARK   98  A    between atoms: _247  and  _249
REMARK   99  A    between atoms: _249  and  _250
REMARK  100  A    between atoms: _249  and  _252
REMARK  101  A    between atoms: _252  and  _253
REMARK  102  A    between atoms: _256  and  _258
REMARK  103  A    between atoms: _258  and  _259
REMARK  104  A    between atoms: _258  and  _261
REMARK  105  A    between atoms: _261  and  _262
REMARK  106  A    between atoms: _267  and  _269
REMARK  107  A    between atoms: _269  and  _270
REMARK  108  A    between atoms: _269  and  _272
REMARK  109  A    between atoms: _272  and  _273
REMARK  110  A    between atoms: _273  and  _274
REMARK  111  A    between atoms: _274  and  ZN_433
REMARK  112  A    between atoms: _276  and  _278
REMARK  113  A    between atoms: _278  and  _279
REMARK  114  A    between atoms: _278  and  _281
REMARK  115  A    between atoms: _281  and  _282
REMARK  116  A    between atoms: _284  and  _286
REMARK  117  A    between atoms: _286  and  _287
REMARK  118  A    between atoms: _286  and  _289
REMARK  119  A    between atoms: _289  and  _290
REMARK  120  A    between atoms: _292  and  _294
REMARK  121  A    between atoms: _294  and  _295
REMARK  122  A    between atoms: _297  and  _299
REMARK  123  A    between atoms: _299  and  _300
REMARK  124  A    between atoms: _299  and  _302
REMARK  125  A    between atoms: _302  and  _303
REMARK  126  A    between atoms: _305  and  _307
REMARK  127  A    between atoms: _307  and  _308
REMARK  128  A    between atoms: _307  and  _310
REMARK  129  A    between atoms: _310  and  _311
REMARK  130  A    between atoms: _314  and  _316
REMARK  131  A    between atoms: _316  and  _317
REMARK  132  A    between atoms: _316  and  _319
REMARK  133  A    between atoms: _319  and  _320
REMARK  134  A    between atoms: _320  and  _321
REMARK  135  A    between atoms: _324  and  _326
REMARK  136  A    between atoms: _326  and  _327
REMARK  137  A    between atoms: _326  and  _329
REMARK  138  A    between atoms: _329  and  _330
REMARK  139  A    between atoms: _330  and  _331
REMARK  140  A    between atoms: _331  and  _332
REMARK  141  A    between atoms: _341  and  _343
REMARK  142  A    between atoms: _343  and  _344
REMARK  143  A    between atoms: _343  and  _346
REMARK  144  A    between atoms: _346  and  _347
REMARK  145  A    between atoms: _347  and  _348
REMARK  146  A    between atoms: _348  and  _349
REMARK  147  A    between atoms: _358  and  _360
REMARK  148  A    between atoms: _360  and  _361
REMARK  149  A    between atoms: _360  and  _363
REMARK  150  A    between atoms: _363  and  _364
REMARK  151  A    between atoms: _366  and  _368
REMARK  152  A    between atoms: _368  and  _369
REMARK  153  A    between atoms: _368  and  _371
REMARK  154  A    between atoms: _371  and  _372
REMARK  155  A    between atoms: _377  and  _378
REMARK  156  A    between atoms: _380  and  _382
REMARK  157  A    between atoms: _382  and  _383
REMARK  158  A    between atoms: _382  and  _385
REMARK  159  A    between atoms: _385  and  _386
REMARK  160  A    between atoms: _390  and  ZN_432
REMARK  161  A    between atoms: _391  and  _393
REMARK  162  A    between atoms: _393  and  _394
REMARK  163  A    between atoms: _393  and  _396
REMARK  164  A    between atoms: _396  and  _397
REMARK  165  A    between atoms: _402  and  _403
REMARK  166  A    between atoms: _405  and  _407
REMARK  167  A    between atoms: _407  and  _408
REMARK  168  A    between atoms: _407  and  _410
REMARK  169  A    between atoms: _410  and  _411
REMARK  170  A    between atoms: _411  and  _412
REMARK  171  A    between atoms: _412  and  _413
REMARK  172  A    between atoms: _413  and  _414
REMARK  173  A    between atoms: _418  and  _420
REMARK  174  A    between atoms: _420  and  _421
REMARK  175  A    between atoms: _420  and  _423
REMARK  176  A    between atoms: _423  and  _424
REMARK  177  A    between atoms: _429  and  _430
REMARK                            x       y       z     vdW  Elec       q    Type
REMARK                         _______ _______ _______ _____ _____    ______ ____
ROOT
ATOM      1  O   HOH     1      16.031  35.956  10.784  0.00  0.00    +0.000 OA
ENDROOT
TORSDOF 0
REMARK  Name = ../refined-set-2016/3ff3/3ff3_pocket.pdb
REMARK  177 active torsions:
REMARK  status: ('A' for Active; 'I' for Inactive)
REMARK    1  A    between atoms: _1  and  _3
REMARK    2  A    between atoms: _3  and  _4
REMARK    3  A    between atoms: _3  and  _6
REMARK    4  A    between atoms: _6  and  _7
REMARK    5  A    between atoms: _13  and  _15
REMARK    6  A    between atoms: _15  and  _16
REMARK    7  A    between atoms: _15  and  _18
REMARK    8  A    between atoms: _18  and  _19
REMARK    9  A    between atoms: _25  and  _27
REMARK   10  A    between atoms: _27  and  _28
REMARK   11  A    between atoms: _27  and  _30
REMARK   12  A    between atoms: _30  and  _31
REMARK   13  A    between atoms: _31  and  _32
REMARK   14  A    between atoms: _32  and  _33
REMARK   15  A    between atoms: _42  and  _44
REMARK   16  A    between atoms: _44  and  _45
REMARK   17  A    between atoms: _47  and  _49
REMARK   18  A    between atoms: _49  and  _50
REMARK   19  A    between atoms: _49  and  _52
REMARK   20  A    between atoms: _52  and  _53
REMARK   21  A    between atoms: _53  and  _54
REMARK   22  A    between atoms: _59  and  _61
REMARK   23  A    between atoms: _61  and  _62
REMARK   24  A    between atoms: _61  and  _64
REMARK   25  A    between atoms: _64  and  _65
REMARK   26  A    between atoms: _65  and  _66
REMARK   27  A    between atoms: _66  and  _67
REMARK   28  A    between atoms: _76  and  _78
REMARK   29  A    between atoms: _78  and  _79
REMARK   30  A    between atoms: _81  and  _83
REMARK   31  A    between atoms: _83  and  _84
REMARK   32  A    between atoms: _83  and  _86
REMARK   33  A    between atoms: _86  and  _87
REMARK   34  A    between atoms: _92  and  _94
REMARK   35  A    between atoms: _94  and  _95
REMARK   36  A    between atoms: _94  and  _97
REMARK   37  A    between atoms: _100  and  _102
REMARK   38  A    between atoms: _102  and  _103
REMARK   39  A    between atoms: _102  and  _105
REMARK   40  A    between atoms: _105  and  _106
REMARK   41  A    between atoms: _109  and  _111
REMARK   42  A    between atoms: _111  and  _112
REMARK   43  A    between atoms: _111  and  _114
REMARK   44  A    between atoms: _114  and  _115
REMARK   45  A    between atoms: _120  and  _122
REMARK   46  A    between atoms: _122  and  _123
REMARK   47  A    between atoms: _122  and  _125
REMARK   48  A    between atoms: _125  and  _126
REMARK   49  A    between atoms: _129  and  _131
REMARK   50  A    between atoms: _131  and  _132
REMARK   51  A    between atoms: _131  and  _134
REMARK   52  A    between atoms: _134  and  _135
REMARK   53  A    between atoms: _140  and  _142
REMARK   54  A    between atoms: _142  and  _143
REMARK   55  A    between atoms: _145  and  _147
REMARK   56  A    between atoms: _147  and  _148
REMARK   57  A    between atoms: _150  and  _152
REMARK   58  A    between atoms: _152  and  _153
REMARK   59  A    between atoms: _152  and  _155
REMARK   60  A    between atoms: _155  and  _156
REMARK   61  A    between atoms: _160  and  ZN_433
REMARK   62  A    between atoms: _161  and  _163
REMARK   63  A    between atoms: _163  and  _164
REMARK   64  A    between atoms: _163  and  _166
REMARK   65  A    between atoms: _166  and  _167
REMARK   66  A    between atoms: _170  and  _172
REMARK   67  A    between atoms: _172  and  _173
REMARK   68  A    between atoms: _172  and  _175
REMARK   69  A    between atoms: _175  and  _176
REMARK   70  A    between atoms: _186  and  _188
REMARK   71  A    between atoms: _188  and  _189
REMARK   72  A    between atoms: _188  and  _191
REMARK   73  A    between atoms: _191  and  _192
REMARK   74  A    between atoms: _195  and  _197
REMARK   75  A    between atoms: _197  and  _198
REMARK   76  A    between atoms: _201  and  _203
REMARK   77  A    between atoms: _203  and  _204
REMARK   78  A    between atoms: _203  and  _206
REMARK   79  A    between atoms: _206  and  _207
REMARK   80  A    between atoms: _207  and  _208
REMARK   81  A    between atoms: _211  and  _213
REMARK   82  A    between atoms: _213  and  _214
REMARK   83  A    between atoms: _213  and  _216
REMARK   84  A    between atoms: _216  and  _217
REMARK   85  A    between atoms: _217  and  _218
REMARK   86  A    between atoms: _218  and  _220
REMARK   87  A    between atoms: _220  and  ZN_432
REMARK   88  A    between atoms: _221  and  _223
REMARK   89  A    between atoms: _223  and  _224
REMARK   90  A    between atoms: _223  and  _226
REMARK   91  A    between atoms: _226  and  _227
REMARK   92  A    between atoms: _233  and  _235
REMARK   93  A    between atoms: _235  and  _236
REMARK   94  A    between atoms: _238  and  _240
REMARK   95  A    between atoms: _240  and  _241
REMARK   96  A    between atoms: _240  and  _243
REMARK   97  A    between atoms: _243  and  _244
REMARK   98  A    between atoms: _247  and  _249
REMARK   99  A    between atoms: _249  and  _250
REMARK  100  A    between atoms: _249  and  _252
REMARK  101  A    between atoms: _252  and  _253
REMARK  102  A    between atoms: _256  and  _258
REMARK  103  A    between atoms: _258  and  _259
REMARK  104  A    between atoms: _258  and  _261
REMARK  105  A    between atoms: _261  and  _262
REMARK  106  A    between atoms: _267  and  _269
REMARK  107  A    between atoms: _269  and  _270
REMARK  108  A    between atoms: _269  and  _272
REMARK  109  A    between atoms: _272  and  _273
REMARK  110  A    between atoms: _273  and  _274
REMARK  111  A    between atoms: _274  and  ZN_433
REMARK  112  A    between atoms: _276  and  _278
REMARK  113  A    between atoms: _278  and  _279
REMARK  114  A    between atoms: _278  and  _281
REMARK  115  A    between atoms: _281  and  _282
REMARK  116  A    between atoms: _284  and  _286
REMARK  117  A    between atoms: _286  and  _287
REMARK  118  A    between atoms: _286  and  _289
REMARK  119  A    between atoms: _289  and  _290
REMARK  120  A    between atoms: _292  and  _294
REMARK  121  A    between atoms: _294  and  _295
REMARK  122  A    between atoms: _297  and  _299
REMARK  123  A    between atoms: _299  and  _300
REMARK  124  A    between atoms: _299  and  _302
REMARK  125  A    between atoms: _302  and  _303
REMARK  126  A    between atoms: _305  and  _307
REMARK  127  A    between atoms: _307  and  _308
REMARK  128  A    between atoms: _307  and  _310
REMARK  129  A    between atoms: _310  and  _311
REMARK  130  A    between atoms: _314  and  _316
REMARK  131  A    between atoms: _316  and  _317
REMARK  132  A    between atoms: _316  and  _319
REMARK  133  A    between atoms: _319  and  _320
REMARK  134  A    between atoms: _320  and  _321
REMARK  135  A    between atoms: _324  and  _326
REMARK  136  A    between atoms: _326  and  _327
REMARK  137  A    between atoms: _326  and  _329
REMARK  138  A    between atoms: _329  and  _330
REMARK  139  A    between atoms: _330  and  _331
REMARK  140  A    between atoms: _331  and  _332
REMARK  141  A    between atoms: _341  and  _343
REMARK  142  A    between atoms: _343  and  _344
REMARK  143  A    between atoms: _343  and  _346
REMARK  144  A    between atoms: _346  and  _347
REMARK  145  A    between atoms: _347  and  _348
REMARK  146  A    between atoms: _348  and  _349
REMARK  147  A    between atoms: _358  and  _360
REMARK  148  A    between atoms: _360  and  _361
REMARK  149  A    between atoms: _360  and  _363
REMARK  150  A    between atoms: _363  and  _364
REMARK  151  A    between atoms: _366  and  _368
REMARK  152  A    between atoms: _368  and  _369
REMARK  153  A    between atoms: _368  and  _371
REMARK  154  A    between atoms: _371  and  _372
REMARK  155  A    between atoms: _377  and  _378
REMARK  156  A    between atoms: _380  and  _382
REMARK  157  A    between atoms: _382  and  _383
REMARK  158  A    between atoms: _382  and  _385
REMARK  159  A    between atoms: _385  and  _386
REMARK  160  A    between atoms: _390  and  ZN_432
REMARK  161  A    between atoms: _391  and  _393
REMARK  162  A    between atoms: _393  and  _394
REMARK  163  A    between atoms: _393  and  _396
REMARK  164  A    between atoms: _396  and  _397
REMARK  165  A    between atoms: _402  and  _403
REMARK  166  A    between atoms: _405  and  _407
REMARK  167  A    between atoms: _407  and  _408
REMARK  168  A    between atoms: _407  and  _410
REMARK  169  A    between atoms: _410  and  _411
REMARK  170  A    between atoms: _411  and  _412
REMARK  171  A    between atoms: _412  and  _413
REMARK  172  A    between atoms: _413  and  _414
REMARK  173  A    between atoms: _418  and  _420
REMARK  174  A    between atoms: _420  and  _421
REMARK  175  A    between atoms: _420  and  _423
REMARK  176  A    between atoms: _423  and  _424
REMARK  177  A    between atoms: _429  and  _430
REMARK                            x       y       z     vdW  Elec       q    Type
REMARK                         _______ _______ _______ _____ _____    ______ ____
ROOT
ATOM      1  O   HOH     1      26.648  38.394  15.019  0.00  0.00    +0.000 OA
ENDROOT
TORSDOF 0
REMARK  Name = ../refined-set-2016/3ff3/3ff3_pocket.pdb
REMARK  177 active torsions:
REMARK  status: ('A' for Active; 'I' for Inactive)
REMARK    1  A    between atoms: _1  and  _3
REMARK    2  A    between atoms: _3  and  _4
REMARK    3  A    between atoms: _3  and  _6
REMARK    4  A    between atoms: _6  and  _7
REMARK    5  A    between atoms: _13  and  _15
REMARK    6  A    between atoms: _15  and  _16
REMARK    7  A    between atoms: _15  and  _18
REMARK    8  A    between atoms: _18  and  _19
REMARK    9  A    between atoms: _25  and  _27
REMARK   10  A    between atoms: _27  and  _28
REMARK   11  A    between atoms: _27  and  _30
REMARK   12  A    between atoms: _30  and  _31
REMARK   13  A    between atoms: _31  and  _32
REMARK   14  A    between atoms: _32  and  _33
REMARK   15  A    between atoms: _42  and  _44
REMARK   16  A    between atoms: _44  and  _45
REMARK   17  A    between atoms: _47  and  _49
REMARK   18  A    between atoms: _49  and  _50
REMARK   19  A    between atoms: _49  and  _52
REMARK   20  A    between atoms: _52  and  _53
REMARK   21  A    between atoms: _53  and  _54
REMARK   22  A    between atoms: _59  and  _61
REMARK   23  A    between atoms: _61  and  _62
REMARK   24  A    between atoms: _61  and  _64
REMARK   25  A    between atoms: _64  and  _65
REMARK   26  A    between atoms: _65  and  _66
REMARK   27  A    between atoms: _66  and  _67
REMARK   28  A    between atoms: _76  and  _78
REMARK   29  A    between atoms: _78  and  _79
REMARK   30  A    between atoms: _81  and  _83
REMARK   31  A    between atoms: _83  and  _84
REMARK   32  A    between atoms: _83  and  _86
REMARK   33  A    between atoms: _86  and  _87
REMARK   34  A    between atoms: _92  and  _94
REMARK   35  A    between atoms: _94  and  _95
REMARK   36  A    between atoms: _94  and  _97
REMARK   37  A    between atoms: _100  and  _102
REMARK   38  A    between atoms: _102  and  _103
REMARK   39  A    between atoms: _102  and  _105
REMARK   40  A    between atoms: _105  and  _106
REMARK   41  A    between atoms: _109  and  _111
REMARK   42  A    between atoms: _111  and  _112
REMARK   43  A    between atoms: _111  and  _114
REMARK   44  A    between atoms: _114  and  _115
REMARK   45  A    between atoms: _120  and  _122
REMARK   46  A    between atoms: _122  and  _123
REMARK   47  A    between atoms: _122  and  _125
REMARK   48  A    between atoms: _125  and  _126
REMARK   49  A    between atoms: _129  and  _131
REMARK   50  A    between atoms: _131  and  _132
REMARK   51  A    between atoms: _131  and  _134
REMARK   52  A    between atoms: _134  and  _135
REMARK   53  A    between atoms: _140  and  _142
REMARK   54  A    between atoms: _142  and  _143
REMARK   55  A    between atoms: _145  and  _147
REMARK   56  A    between atoms: _147  and  _148
REMARK   57  A    between atoms: _150  and  _152
REMARK   58  A    between atoms: _152  and  _153
REMARK   59  A    between atoms: _152  and  _155
REMARK   60  A    between atoms: _155  and  _156
REMARK   61  A    between atoms: _160  and  ZN_433
REMARK   62  A    between atoms: _161  and  _163
REMARK   63  A    between atoms: _163  and  _164
REMARK   64  A    between atoms: _163  and  _166
REMARK   65  A    between atoms: _166  and  _167
REMARK   66  A    between atoms: _170  and  _172
REMARK   67  A    between atoms: _172  and  _173
REMARK   68  A    between atoms: _172  and  _175
REMARK   69  A    between atoms: _175  and  _176
REMARK   70  A    between atoms: _186  and  _188
REMARK   71  A    between atoms: _188  and  _189
REMARK   72  A    between atoms: _188  and  _191
REMARK   73  A    between atoms: _191  and  _192
REMARK   74  A    between atoms: _195  and  _197
REMARK   75  A    between atoms: _197  and  _198
REMARK   76  A    between atoms: _201  and  _203
REMARK   77  A    between atoms: _203  and  _204
REMARK   78  A    between atoms: _203  and  _206
REMARK   79  A    between atoms: _206  and  _207
REMARK   80  A    between atoms: _207  and  _208
REMARK   81  A    between atoms: _211  and  _213
REMARK   82  A    between atoms: _213  and  _214
REMARK   83  A    between atoms: _213  and  _216
REMARK   84  A    between atoms: _216  and  _217
REMARK   85  A    between atoms: _217  and  _218
REMARK   86  A    between atoms: _218  and  _220
REMARK   87  A    between atoms: _220  and  ZN_432
REMARK   88  A    between atoms: _221  and  _223
REMARK   89  A    between atoms: _223  and  _224
REMARK   90  A    between atoms: _223  and  _226
REMARK   91  A    between atoms: _226  and  _227
REMARK   92  A    between atoms: _233  and  _235
REMARK   93  A    between atoms: _235  and  _236
REMARK   94  A    between atoms: _238  and  _240
REMARK   95  A    between atoms: _240  and  _241
REMARK   96  A    between atoms: _240  and  _243
REMARK   97  A    between atoms: _243  and  _244
REMARK   98  A    between atoms: _247  and  _249
REMARK   99  A    between atoms: _249  and  _250
REMARK  100  A    between atoms: _249  and  _252
REMARK  101  A    between atoms: _252  and  _253
REMARK  102  A    between atoms: _256  and  _258
REMARK  103  A    between atoms: _258  and  _259
REMARK  104  A    between atoms: _258  and  _261
REMARK  105  A    between atoms: _261  and  _262
REMARK  106  A    between atoms: _267  and  _269
REMARK  107  A    between atoms: _269  and  _270
REMARK  108  A    between atoms: _269  and  _272
REMARK  109  A    between atoms: _272  and  _273
REMARK  110  A    between atoms: _273  and  _274
REMARK  111  A    between atoms: _274  and  ZN_433
REMARK  112  A    between atoms: _276  and  _278
REMARK  113  A    between atoms: _278  and  _279
REMARK  114  A    between atoms: _278  and  _281
REMARK  115  A    between atoms: _281  and  _282
REMARK  116  A    between atoms: _284  and  _286
REMARK  117  A    between atoms: _286  and  _287
REMARK  118  A    between atoms: _286  and  _289
REMARK  119  A    between atoms: _289  and  _290
REMARK  120  A    between atoms: _292  and  _294
REMARK  121  A    between atoms: _294  and  _295
REMARK  122  A    between atoms: _297  and  _299
REMARK  123  A    between atoms: _299  and  _300
REMARK  124  A    between atoms: _299  and  _302
REMARK  125  A    between atoms: _302  and  _303
REMARK  126  A    between atoms: _305  and  _307
REMARK  127  A    between atoms: _307  and  _308
REMARK  128  A    between atoms: _307  and  _310
REMARK  129  A    between atoms: _310  and  _311
REMARK  130  A    between atoms: _314  and  _316
REMARK  131  A    between atoms: _316  and  _317
REMARK  132  A    between atoms: _316  and  _319
REMARK  133  A    between atoms: _319  and  _320
REMARK  134  A    between atoms: _320  and  _321
REMARK  135  A    between atoms: _324  and  _326
REMARK  136  A    between atoms: _326  and  _327
REMARK  137  A    between atoms: _326  and  _329
REMARK  138  A    between atoms: _329  and  _330
REMARK  139  A    between atoms: _330  and  _331
REMARK  140  A    between atoms: _331  and  _332
REMARK  141  A    between atoms: _341  and  _343
REMARK  142  A    between atoms: _343  and  _344
REMARK  143  A    between atoms: _343  and  _346
REMARK  144  A    between atoms: _346  and  _347
REMARK  145  A    between atoms: _347  and  _348
REMARK  146  A    between atoms: _348  and  _349
REMARK  147  A    between atoms: _358  and  _360
REMARK  148  A    between atoms: _360  and  _361
REMARK  149  A    between atoms: _360  and  _363
REMARK  150  A    between atoms: _363  and  _364
REMARK  151  A    between atoms: _366  and  _368
REMARK  152  A    between atoms: _368  and  _369
REMARK  153  A    between atoms: _368  and  _371
REMARK  154  A    between atoms: _371  and  _372
REMARK  155  A    between atoms: _377  and  _378
REMARK  156  A    between atoms: _380  and  _382
REMARK  157  A    between atoms: _382  and  _383
REMARK  158  A    between atoms: _382  and  _385
REMARK  159  A    between atoms: _385  and  _386
REMARK  160  A    between atoms: _390  and  ZN_432
REMARK  161  A    between atoms: _391  and  _393
REMARK  162  A    between atoms: _393  and  _394
REMARK  163  A    between atoms: _393  and  _396
REMARK  164  A    between atoms: _396  and  _397
REMARK  165  A    between atoms: _402  and  _403
REMARK  166  A    between atoms: _405  and  _407
REMARK  167  A    between atoms: _407  and  _408
REMARK  168  A    between atoms: _407  and  _410
REMARK  169  A    between atoms: _410  and  _411
REMARK  170  A    between atoms: _411  and  _412
REMARK  171  A    between atoms: _412  and  _413
REMARK  172  A    between atoms: _413  and  _414
REMARK  173  A    between atoms: _418  and  _420
REMARK  174  A    between atoms: _420  and  _421
REMARK  175  A    between atoms: _420  and  _423
REMARK  176  A    between atoms: _423  and  _424
REMARK  177  A    between atoms: _429  and  _430
REMARK                            x       y       z     vdW  Elec       q    Type
REMARK                         _______ _______ _______ _____ _____    ______ ____
ROOT
ATOM      1  O   HOH     1      20.883  43.902  19.649  0.00  0.00    +0.000 OA
ENDROOT
TORSDOF 0
REMARK  Name = ../refined-set-2016/3ff3/3ff3_pocket.pdb
REMARK  177 active torsions:
REMARK  status: ('A' for Active; 'I' for Inactive)
REMARK    1  A    between atoms: _1  and  _3
REMARK    2  A    between atoms: _3  and  _4
REMARK    3  A    between atoms: _3  and  _6
REMARK    4  A    between atoms: _6  and  _7
REMARK    5  A    between atoms: _13  and  _15
REMARK    6  A    between atoms: _15  and  _16
REMARK    7  A    between atoms: _15  and  _18
REMARK    8  A    between atoms: _18  and  _19
REMARK    9  A    between atoms: _25  and  _27
REMARK   10  A    between atoms: _27  and  _28
REMARK   11  A    between atoms: _27  and  _30
REMARK   12  A    between atoms: _30  and  _31
REMARK   13  A    between atoms: _31  and  _32
REMARK   14  A    between atoms: _32  and  _33
REMARK   15  A    between atoms: _42  and  _44
REMARK   16  A    between atoms: _44  and  _45
REMARK   17  A    between atoms: _47  and  _49
REMARK   18  A    between atoms: _49  and  _50
REMARK   19  A    between atoms: _49  and  _52
REMARK   20  A    between atoms: _52  and  _53
REMARK   21  A    between atoms: _53  and  _54
REMARK   22  A    between atoms: _59  and  _61
REMARK   23  A    between atoms: _61  and  _62
REMARK   24  A    between atoms: _61  and  _64
REMARK   25  A    between atoms: _64  and  _65
REMARK   26  A    between atoms: _65  and  _66
REMARK   27  A    between atoms: _66  and  _67
REMARK   28  A    between atoms: _76  and  _78
REMARK   29  A    between atoms: _78  and  _79
REMARK   30  A    between atoms: _81  and  _83
REMARK   31  A    between atoms: _83  and  _84
REMARK   32  A    between atoms: _83  and  _86
REMARK   33  A    between atoms: _86  and  _87
REMARK   34  A    between atoms: _92  and  _94
REMARK   35  A    between atoms: _94  and  _95
REMARK   36  A    between atoms: _94  and  _97
REMARK   37  A    between atoms: _100  and  _102
REMARK   38  A    between atoms: _102  and  _103
REMARK   39  A    between atoms: _102  and  _105
REMARK   40  A    between atoms: _105  and  _106
REMARK   41  A    between atoms: _109  and  _111
REMARK   42  A    between atoms: _111  and  _112
REMARK   43  A    between atoms: _111  and  _114
REMARK   44  A    between atoms: _114  and  _115
REMARK   45  A    between atoms: _120  and  _122
REMARK   46  A    between atoms: _122  and  _123
REMARK   47  A    between atoms: _122  and  _125
REMARK   48  A    between atoms: _125  and  _126
REMARK   49  A    between atoms: _129  and  _131
REMARK   50  A    between atoms: _131  and  _132
REMARK   51  A    between atoms: _131  and  _134
REMARK   52  A    between atoms: _134  and  _135
REMARK   53  A    between atoms: _140  and  _142
REMARK   54  A    between atoms: _142  and  _143
REMARK   55  A    between atoms: _145  and  _147
REMARK   56  A    between atoms: _147  and  _148
REMARK   57  A    between atoms: _150  and  _152
REMARK   58  A    between atoms: _152  and  _153
REMARK   59  A    between atoms: _152  and  _155
REMARK   60  A    between atoms: _155  and  _156
REMARK   61  A    between atoms: _160  and  ZN_433
REMARK   62  A    between atoms: _161  and  _163
REMARK   63  A    between atoms: _163  and  _164
REMARK   64  A    between atoms: _163  and  _166
REMARK   65  A    between atoms: _166  and  _167
REMARK   66  A    between atoms: _170  and  _172
REMARK   67  A    between atoms: _172  and  _173
REMARK   68  A    between atoms: _172  and  _175
REMARK   69  A    between atoms: _175  and  _176
REMARK   70  A    between atoms: _186  and  _188
REMARK   71  A    between atoms: _188  and  _189
REMARK   72  A    between atoms: _188  and  _191
REMARK   73  A    between atoms: _191  and  _192
REMARK   74  A    between atoms: _195  and  _197
REMARK   75  A    between atoms: _197  and  _198
REMARK   76  A    between atoms: _201  and  _203
REMARK   77  A    between atoms: _203  and  _204
REMARK   78  A    between atoms: _203  and  _206
REMARK   79  A    between atoms: _206  and  _207
REMARK   80  A    between atoms: _207  and  _208
REMARK   81  A    between atoms: _211  and  _213
REMARK   82  A    between atoms: _213  and  _214
REMARK   83  A    between atoms: _213  and  _216
REMARK   84  A    between atoms: _216  and  _217
REMARK   85  A    between atoms: _217  and  _218
REMARK   86  A    between atoms: _218  and  _220
REMARK   87  A    between atoms: _220  and  ZN_432
REMARK   88  A    between atoms: _221  and  _223
REMARK   89  A    between atoms: _223  and  _224
REMARK   90  A    between atoms: _223  and  _226
REMARK   91  A    between atoms: _226  and  _227
REMARK   92  A    between atoms: _233  and  _235
REMARK   93  A    between atoms: _235  and  _236
REMARK   94  A    between atoms: _238  and  _240
REMARK   95  A    between atoms: _240  and  _241
REMARK   96  A    between atoms: _240  and  _243
REMARK   97  A    between atoms: _243  and  _244
REMARK   98  A    between atoms: _247  and  _249
REMARK   99  A    between atoms: _249  and  _250
REMARK  100  A    between atoms: _249  and  _252
REMARK  101  A    between atoms: _252  and  _253
REMARK  102  A    between atoms: _256  and  _258
REMARK  103  A    between atoms: _258  and  _259
REMARK  104  A    between atoms: _258  and  _261
REMARK  105  A    between atoms: _261  and  _262
REMARK  106  A    between atoms: _267  and  _269
REMARK  107  A    between atoms: _269  and  _270
REMARK  108  A    between atoms: _269  and  _272
REMARK  109  A    between atoms: _272  and  _273
REMARK  110  A    between atoms: _273  and  _274
REMARK  111  A    between atoms: _274  and  ZN_433
REMARK  112  A    between atoms: _276  and  _278
REMARK  113  A    between atoms: _278  and  _279
REMARK  114  A    between atoms: _278  and  _281
REMARK  115  A    between atoms: _281  and  _282
REMARK  116  A    between atoms: _284  and  _286
REMARK  117  A    between atoms: _286  and  _287
REMARK  118  A    between atoms: _286  and  _289
REMARK  119  A    between atoms: _289  and  _290
REMARK  120  A    between atoms: _292  and  _294
REMARK  121  A    between atoms: _294  and  _295
REMARK  122  A    between atoms: _297  and  _299
REMARK  123  A    between atoms: _299  and  _300
REMARK  124  A    between atoms: _299  and  _302
REMARK  125  A    between atoms: _302  and  _303
REMARK  126  A    between atoms: _305  and  _307
REMARK  127  A    between atoms: _307  and  _308
REMARK  128  A    between atoms: _307  and  _310
REMARK  129  A    between atoms: _310  and  _311
REMARK  130  A    between atoms: _314  and  _316
REMARK  131  A    between atoms: _316  and  _317
REMARK  132  A    between atoms: _316  and  _319
REMARK  133  A    between atoms: _319  and  _320
REMARK  134  A    between atoms: _320  and  _321
REMARK  135  A    between atoms: _324  and  _326
REMARK  136  A    between atoms: _326  and  _327
REMARK  137  A    between atoms: _326  and  _329
REMARK  138  A    between atoms: _329  and  _330
REMARK  139  A    between atoms: _330  and  _331
REMARK  140  A    between atoms: _331  and  _332
REMARK  141  A    between atoms: _341  and  _343
REMARK  142  A    between atoms: _343  and  _344
REMARK  143  A    between atoms: _343  and  _346
REMARK  144  A    between atoms: _346  and  _347
REMARK  145  A    between atoms: _347  and  _348
REMARK  146  A    between atoms: _348  and  _349
REMARK  147  A    between atoms: _358  and  _360
REMARK  148  A    between atoms: _360  and  _361
REMARK  149  A    between atoms: _360  and  _363
REMARK  150  A    between atoms: _363  and  _364
REMARK  151  A    between atoms: _366  and  _368
REMARK  152  A    between atoms: _368  and  _369
REMARK  153  A    between atoms: _368  and  _371
REMARK  154  A    between atoms: _371  and  _372
REMARK  155  A    between atoms: _377  and  _378
REMARK  156  A    between atoms: _380  and  _382
REMARK  157  A    between atoms: _382  and  _383
REMARK  158  A    between atoms: _382  and  _385
REMARK  159  A    between atoms: _385  and  _386
REMARK  160  A    between atoms: _390  and  ZN_432
REMARK  161  A    between atoms: _391  and  _393
REMARK  162  A    between atoms: _393  and  _394
REMARK  163  A    between atoms: _393  and  _396
REMARK  164  A    between atoms: _396  and  _397
REMARK  165  A    between atoms: _402  and  _403
REMARK  166  A    between atoms: _405  and  _407
REMARK  167  A    between atoms: _407  and  _408
REMARK  168  A    between atoms: _407  and  _410
REMARK  169  A    between atoms: _410  and  _411
REMARK  170  A    between atoms: _411  and  _412
REMARK  171  A    between atoms: _412  and  _413
REMARK  172  A    between atoms: _413  and  _414
REMARK  173  A    between atoms: _418  and  _420
REMARK  174  A    between atoms: _420  and  _421
REMARK  175  A    between atoms: _420  and  _423
REMARK  176  A    between atoms: _423  and  _424
REMARK  177  A    between atoms: _429  and  _430
REMARK                            x       y       z     vdW  Elec       q    Type
REMARK                         _______ _______ _______ _____ _____    ______ ____
ROOT
ATOM      1  O   HOH     1      21.207  46.162  13.377  0.00  0.00    +0.000 OA
ENDROOT
TORSDOF 0
